
 OpenBabel05032121093D

 22 23  0  0  0  0  0  0  0  0999 V2000
   -5.2943    8.6297    0.6108 C   0  0  0  0  0  0  0  0  0  0  0  0
   -3.9349    8.5023    0.9163 C   0  0  0  0  0  0  0  0  0  0  0  0
   -3.2847    7.2614    0.7756 C   0  0  0  0  0  0  0  0  0  0  0  0
   -6.0311    7.5170    0.1581 C   0  0  0  0  0  0  0  0  0  0  0  0
   -5.3824    6.2854    0.0193 C   0  0  0  0  0  0  0  0  0  0  0  0
   -4.0261    6.1605    0.3246 C   0  0  0  0  0  0  0  0  0  0  0  0
   -1.8859    7.0929    1.0808 N   0  0  0  0  0  0  0  0  0  0  0  0
   -1.0187    8.0296    1.5231 C   0  0  0  0  0  0  0  0  0  0  0  0
    0.2137    7.4376    1.6842 C   0  0  0  0  0  0  0  0  0  0  0  0
   -1.2511    5.9354    0.9566 N   0  0  0  0  0  0  0  0  0  0  0  0
    0.0323    6.1211    1.3193 C   0  0  0  0  0  0  0  0  0  0  0  0
   -5.7614    9.5980    0.7306 H   0  0  0  0  0  0  0  0  0  0  0  0
   -3.4051    9.3783    1.2603 H   0  0  0  0  0  0  0  0  0  0  0  0
   -7.3517    7.5879   -0.1515 O   0  0  0  0  0  0  0  0  0  0  0  0
   -5.9293    5.4180   -0.3268 H   0  0  0  0  0  0  0  0  0  0  0  0
   -1.2459    9.0678    1.7193 H   0  0  0  0  0  0  0  0  0  0  0  0
    1.1279    7.9052    2.0241 H   0  0  0  0  0  0  0  0  0  0  0  0
    0.7869    5.3463    1.3177 H   0  0  0  0  0  0  0  0  0  0  0  0
   -8.1390    8.7178   -0.0719 C   0  0  0  0  0  0  0  0  0  0  0  0
   -9.1710    8.4633   -0.3892 H   0  0  0  0  0  0  0  0  0  0  0  0
   -8.1718    9.0900    0.9742 H   0  0  0  0  0  0  0  0  0  0  0  0
   -7.7459    9.5081   -0.7465 H   0  0  0  0  0  0  0  0  0  0  0  0
  1 12  1  0  0  0  0
  1  2  2  0  0  0  0
  2 13  1  0  0  0  0
  3  2  1  0  0  0  0
  3  7  1  0  0  0  0
  4  1  1  0  0  0  0
  5  4  2  0  0  0  0
  5  6  1  0  0  0  0
  6  3  2  0  0  0  0
  7  8  1  0  0  0  0
  8  9  2  0  0  0  0
  8 16  1  0  0  0  0
  9 17  1  0  0  0  0
 10  7  1  0  0  0  0
 10 11  2  0  0  0  0
 11  9  1  0  0  0  0
 14 19  1  0  0  0  0
 14  4  1  0  0  0  0
 15  5  1  0  0  0  0
 18 11  1  0  0  0  0
 19 21  1  0  0  0  0
 20 19  1  0  0  0  0
 22 19  1  0  0  0  0
M  CHG  1   6  -1
M  END
