
 OpenBabel05032121093D

 18 19  0  0  0  0  0  0  0  0999 V2000
   -5.1920    7.7854    0.6512 C   0  0  0  0  0  0  0  0  0  0  0  0
   -3.8271    7.9195    0.9385 C   0  0  0  0  0  0  0  0  0  0  0  0
   -2.9741    6.7986    0.8647 C   0  0  0  0  0  0  0  0  0  0  0  0
   -5.7164    6.5402    0.2900 C   0  0  0  0  0  0  0  0  0  0  0  0
   -4.8776    5.4268    0.2151 C   0  0  0  0  0  0  0  0  0  0  0  0
   -3.5192    5.5583    0.5005 C   0  0  0  0  0  0  0  0  0  0  0  0
   -1.5644    6.8810    1.1495 N   0  0  0  0  0  0  0  0  0  0  0  0
   -0.8489    7.9673    1.5137 C   0  0  0  0  0  0  0  0  0  0  0  0
    0.4642    7.5829    1.6820 C   0  0  0  0  0  0  0  0  0  0  0  0
   -0.7577    5.8304    1.0818 N   0  0  0  0  0  0  0  0  0  0  0  0
    0.4848    6.2336    1.4023 C   0  0  0  0  0  0  0  0  0  0  0  0
   -5.8445    8.6475    0.7086 H   0  0  0  0  0  0  0  0  0  0  0  0
   -3.4526    8.8950    1.2146 H   0  0  0  0  0  0  0  0  0  0  0  0
   -7.0371    6.4116    0.0123 F   0  0  0  0  0  0  0  0  0  0  0  0
   -5.2731    4.4593   -0.0633 H   0  0  0  0  0  0  0  0  0  0  0  0
   -1.2342    8.9682    1.6510 H   0  0  0  0  0  0  0  0  0  0  0  0
    1.3018    8.2030    1.9713 H   0  0  0  0  0  0  0  0  0  0  0  0
    1.3481    5.5827    1.4293 H   0  0  0  0  0  0  0  0  0  0  0  0
  1 12  1  0  0  0  0
  1  2  2  0  0  0  0
  2 13  1  0  0  0  0
  3  2  1  0  0  0  0
  3  7  1  0  0  0  0
  4  1  1  0  0  0  0
  5  4  2  0  0  0  0
  5  6  1  0  0  0  0
  6  3  2  0  0  0  0
  7  8  1  0  0  0  0
  8 16  1  0  0  0  0
  8  9  2  0  0  0  0
  9 17  1  0  0  0  0
 10  7  1  0  0  0  0
 10 11  2  0  0  0  0
 11 18  1  0  0  0  0
 11  9  1  0  0  0  0
 14  4  1  0  0  0  0
 15  5  1  0  0  0  0
M  CHG  1   6  -1
M  END
