
 OpenBabel05032121093D

 20 21  0  0  0  0  0  0  0  0999 V2000
   -5.6415    8.0775    0.5993 C   0  0  0  0  0  0  0  0  0  0  0  0
   -4.2595    8.0749    0.8183 C   0  0  0  0  0  0  0  0  0  0  0  0
   -3.5687    6.8585    0.9737 C   0  0  0  0  0  0  0  0  0  0  0  0
   -6.3443    6.8709    0.5336 C   0  0  0  0  0  0  0  0  0  0  0  0
   -5.6651    5.6593    0.6869 C   0  0  0  0  0  0  0  0  0  0  0  0
   -4.2854    5.6552    0.9056 C   0  0  0  0  0  0  0  0  0  0  0  0
   -2.1103    6.8153    1.2062 C   0  0  0  0  0  0  0  0  0  0  0  0
   -1.2334    7.8787    1.3048 C   0  0  0  0  0  0  0  0  0  0  0  0
   -0.0198    7.3453    1.5171 N   0  0  0  0  0  0  0  0  0  0  0  0
   -1.4002    5.6771    1.3618 N   0  0  0  0  0  0  0  0  0  0  0  0
   -0.1356    6.0278    1.5487 N   0  0  0  0  0  0  0  0  0  0  0  0
   -6.1668    9.0165    0.4807 H   0  0  0  0  0  0  0  0  0  0  0  0
   -3.7401    9.0223    0.8648 H   0  0  0  0  0  0  0  0  0  0  0  0
   -6.2034    4.7223    0.6371 H   0  0  0  0  0  0  0  0  0  0  0  0
   -1.4454    8.9371    1.2311 H   0  0  0  0  0  0  0  0  0  0  0  0
    1.2295    8.0728    1.6873 C   0  0  0  0  0  0  0  0  0  0  0  0
    2.0687    7.3630    1.8471 H   0  0  0  0  0  0  0  0  0  0  0  0
    1.1537    8.7454    2.5674 H   0  0  0  0  0  0  0  0  0  0  0  0
    1.4367    8.6776    0.7796 H   0  0  0  0  0  0  0  0  0  0  0  0
   -7.6834    6.8761    0.3213 F   0  0  0  0  0  0  0  0  0  0  0  0
  1  2  1  0  0  0  0
  2 13  1  0  0  0  0
  2  3  2  0  0  0  0
  3  7  1  0  0  0  0
  4  1  2  0  0  0  0
  4  5  1  0  0  0  0
  5  6  2  0  0  0  0
  6  3  1  0  0  0  0
  7  8  2  0  0  0  0
  7 10  1  0  0  0  0
  8  9  1  0  0  0  0
  9 11  1  0  0  0  0
  9 16  1  0  0  0  0
 10 11  2  0  0  0  0
 12  1  1  0  0  0  0
 14  5  1  0  0  0  0
 15  8  1  0  0  0  0
 16 17  1  0  0  0  0
 16 18  1  0  0  0  0
 19 16  1  0  0  0  0
 20  4  1  0  0  0  0
M  CHG  1   6  -1
M  END
