
 OpenBabel05032121093D

 23 24  0  0  0  0  0  0  0  0999 V2000
   -5.6229    8.0743    0.6146 C   0  0  0  0  0  0  0  0  0  0  0  0
   -4.2406    8.0704    0.8300 C   0  0  0  0  0  0  0  0  0  0  0  0
   -3.5482    6.8569    0.9834 C   0  0  0  0  0  0  0  0  0  0  0  0
   -6.3376    6.8643    0.5486 C   0  0  0  0  0  0  0  0  0  0  0  0
   -5.6419    5.6547    0.7023 C   0  0  0  0  0  0  0  0  0  0  0  0
   -4.2625    5.6546    0.9172 C   0  0  0  0  0  0  0  0  0  0  0  0
   -2.0891    6.8155    1.2123 C   0  0  0  0  0  0  0  0  0  0  0  0
   -1.2134    7.8800    1.3090 C   0  0  0  0  0  0  0  0  0  0  0  0
    0.0014    7.3482    1.5182 N   0  0  0  0  0  0  0  0  0  0  0  0
   -1.3772    5.6782    1.3658 N   0  0  0  0  0  0  0  0  0  0  0  0
   -0.1126    6.0305    1.5497 N   0  0  0  0  0  0  0  0  0  0  0  0
   -6.1269    9.0253    0.5004 H   0  0  0  0  0  0  0  0  0  0  0  0
   -3.7212    9.0179    0.8754 H   0  0  0  0  0  0  0  0  0  0  0  0
   -7.8276    6.8354    0.3176 C   0  0  0  0  0  0  0  0  0  0  0  0
   -6.1662    4.7086    0.6561 H   0  0  0  0  0  0  0  0  0  0  0  0
   -8.3520    8.1100    0.1882 F   0  0  0  0  0  0  0  0  0  0  0  0
   -8.4469    6.2112    1.3852 F   0  0  0  0  0  0  0  0  0  0  0  0
   -8.1006    6.1278   -0.8389 F   0  0  0  0  0  0  0  0  0  0  0  0
   -1.4267    8.9382    1.2362 H   0  0  0  0  0  0  0  0  0  0  0  0
    1.2503    8.0771    1.6856 C   0  0  0  0  0  0  0  0  0  0  0  0
    2.0907    7.3683    1.8431 H   0  0  0  0  0  0  0  0  0  0  0  0
    1.1757    8.7494    2.5661 H   0  0  0  0  0  0  0  0  0  0  0  0
    1.4545    8.6825    0.7776 H   0  0  0  0  0  0  0  0  0  0  0  0
  1  2  1  0  0  0  0
  2 13  1  0  0  0  0
  2  3  2  0  0  0  0
  3  7  1  0  0  0  0
  4  1  2  0  0  0  0
  4  5  1  0  0  0  0
  5  6  2  0  0  0  0
  6  3  1  0  0  0  0
  7  8  2  0  0  0  0
  7 10  1  0  0  0  0
  8  9  1  0  0  0  0
  9 11  1  0  0  0  0
  9 20  1  0  0  0  0
 10 11  2  0  0  0  0
 12  1  1  0  0  0  0
 14  4  1  0  0  0  0
 14 17  1  0  0  0  0
 15  5  1  0  0  0  0
 16 14  1  0  0  0  0
 18 14  1  0  0  0  0
 19  8  1  0  0  0  0
 20 21  1  0  0  0  0
 20 22  1  0  0  0  0
 23 20  1  0  0  0  0
M  CHG  1   6  -1
M  END
