
 OpenBabel05032121093D

 27 28  0  0  0  0  0  0  0  0999 V2000
   -5.5764    8.0639    0.8324 C   0  0  0  0  0  0  0  0  0  0  0  0
   -4.1916    8.1021    1.0262 C   0  0  0  0  0  0  0  0  0  0  0  0
   -3.4258    6.9246    0.9364 C   0  0  0  0  0  0  0  0  0  0  0  0
   -6.2263    6.8502    0.5450 C   0  0  0  0  0  0  0  0  0  0  0  0
   -5.4602    5.6762    0.4558 C   0  0  0  0  0  0  0  0  0  0  0  0
   -4.0785    5.7179    0.6497 C   0  0  0  0  0  0  0  0  0  0  0  0
   -1.9974    6.9253    1.1300 N   0  0  0  0  0  0  0  0  0  0  0  0
   -1.2027    7.9829    1.4114 C   0  0  0  0  0  0  0  0  0  0  0  0
    0.0965    7.5372    1.5141 C   0  0  0  0  0  0  0  0  0  0  0  0
   -1.2553    5.8290    1.0503 N   0  0  0  0  0  0  0  0  0  0  0  0
    0.0235    6.1807    1.2813 C   0  0  0  0  0  0  0  0  0  0  0  0
   -6.1381    8.9868    0.9080 H   0  0  0  0  0  0  0  0  0  0  0  0
   -3.7334    9.0553    1.2449 H   0  0  0  0  0  0  0  0  0  0  0  0
   -7.6951    6.8052    0.3387 C   0  0  0  0  0  0  0  0  0  0  0  0
   -5.9234    4.7231    0.2364 H   0  0  0  0  0  0  0  0  0  0  0  0
   -1.5246    9.0069    1.5361 H   0  0  0  0  0  0  0  0  0  0  0  0
    0.9789    8.1249    1.7302 H   0  0  0  0  0  0  0  0  0  0  0  0
    1.1716    5.2283    1.2803 C   0  0  0  0  0  0  0  0  0  0  0  0
    0.8167    4.1988    1.0630 H   0  0  0  0  0  0  0  0  0  0  0  0
    1.6652    5.2381    2.2744 H   0  0  0  0  0  0  0  0  0  0  0  0
    1.9051    5.5292    0.5034 H   0  0  0  0  0  0  0  0  0  0  0  0
   -8.3012    5.6211    0.0621 O   0  0  0  0  0  0  0  0  0  0  0  0
   -9.6569    5.4790   -0.1448 C   0  0  0  0  0  0  0  0  0  0  0  0
  -10.2176    5.7960    0.7606 H   0  0  0  0  0  0  0  0  0  0  0  0
   -9.8837    4.4129   -0.3507 H   0  0  0  0  0  0  0  0  0  0  0  0
   -9.9770    6.0881   -1.0171 H   0  0  0  0  0  0  0  0  0  0  0  0
   -8.3565    7.8323    0.4179 O   0  0  0  0  0  0  0  0  0  0  0  0
  1 12  1  0  0  0  0
  1  2  2  0  0  0  0
  2 13  1  0  0  0  0
  3  2  1  0  0  0  0
  3  7  1  0  0  0  0
  4  1  1  0  0  0  0
  5  4  2  0  0  0  0
  5  6  1  0  0  0  0
  6  3  2  0  0  0  0
  7  8  1  0  0  0  0
  8  9  2  0  0  0  0
  8 16  1  0  0  0  0
  9 17  1  0  0  0  0
 10  7  1  0  0  0  0
 10 11  2  0  0  0  0
 11  9  1  0  0  0  0
 14 27  2  0  0  0  0
 14  4  1  0  0  0  0
 15  5  1  0  0  0  0
 18 11  1  0  0  0  0
 18 20  1  0  0  0  0
 19 18  1  0  0  0  0
 21 18  1  0  0  0  0
 22 14  1  0  0  0  0
 23 22  1  0  0  0  0
 23 24  1  0  0  0  0
 25 23  1  0  0  0  0
 26 23  1  0  0  0  0
M  CHG  1   6  -1
M  END
