
 OpenBabel05032121093D

 27 28  0  0  0  0  0  0  0  0999 V2000
   -5.5825    8.0937    0.4629 C   0  0  0  0  0  0  0  0  0  0  0  0
   -4.1978    8.1507    0.6590 C   0  0  0  0  0  0  0  0  0  0  0  0
   -3.4679    6.9885    0.9803 C   0  0  0  0  0  0  0  0  0  0  0  0
   -6.2712    6.8740    0.5730 C   0  0  0  0  0  0  0  0  0  0  0  0
   -5.5457    5.7122    0.8696 C   0  0  0  0  0  0  0  0  0  0  0  0
   -4.1651    5.7727    1.0604 C   0  0  0  0  0  0  0  0  0  0  0  0
   -2.0328    6.9698    1.1728 N   0  0  0  0  0  0  0  0  0  0  0  0
   -1.1510    7.9550    1.5144 C   0  0  0  0  0  0  0  0  0  0  0  0
    0.1230    7.4240    1.5179 C   0  0  0  0  0  0  0  0  0  0  0  0
   -1.3492    5.8441    1.0014 N   0  0  0  0  0  0  0  0  0  0  0  0
   -0.0440    6.0993    1.1965 C   0  0  0  0  0  0  0  0  0  0  0  0
   -6.1082    9.0068    0.2148 H   0  0  0  0  0  0  0  0  0  0  0  0
   -3.7272    9.1047    0.5145 H   0  0  0  0  0  0  0  0  0  0  0  0
   -7.7624    6.7827    0.3671 C   0  0  0  0  0  0  0  0  0  0  0  0
   -6.0462    4.7558    0.9510 H   0  0  0  0  0  0  0  0  0  0  0  0
   -1.4163    9.3809    1.9068 C   0  0  0  0  0  0  0  0  0  0  0  0
    1.0500    7.9317    1.7515 H   0  0  0  0  0  0  0  0  0  0  0  0
    1.0390    5.0794    1.0864 C   0  0  0  0  0  0  0  0  0  0  0  0
    0.6103    4.0911    0.8173 H   0  0  0  0  0  0  0  0  0  0  0  0
    1.5685    4.9912    2.0579 H   0  0  0  0  0  0  0  0  0  0  0  0
    1.7614    5.3858    0.3013 H   0  0  0  0  0  0  0  0  0  0  0  0
   -8.3176    8.0175    0.0781 F   0  0  0  0  0  0  0  0  0  0  0  0
   -8.3562    6.2914    1.5155 F   0  0  0  0  0  0  0  0  0  0  0  0
   -8.0307    5.9231   -0.6826 F   0  0  0  0  0  0  0  0  0  0  0  0
   -2.4770    9.6280    2.0492 H   0  0  0  0  0  0  0  0  0  0  0  0
   -0.9517   10.0688    1.1700 H   0  0  0  0  0  0  0  0  0  0  0  0
   -0.9516    9.5617    2.8990 H   0  0  0  0  0  0  0  0  0  0  0  0
  1  4  2  0  0  0  0
  1  2  1  0  0  0  0
  2  3  2  0  0  0  0
  3  6  1  0  0  0  0
  3  7  1  0  0  0  0
  4  5  1  0  0  0  0
  5 15  1  0  0  0  0
  5  6  2  0  0  0  0
  7  8  1  0  0  0  0
  8  9  2  0  0  0  0
  8 16  1  0  0  0  0
  9 17  1  0  0  0  0
 10  7  1  0  0  0  0
 10 11  2  0  0  0  0
 11  9  1  0  0  0  0
 12  1  1  0  0  0  0
 13  2  1  0  0  0  0
 14  4  1  0  0  0  0
 14 23  1  0  0  0  0
 16 25  1  0  0  0  0
 16 27  1  0  0  0  0
 18 11  1  0  0  0  0
 18 20  1  0  0  0  0
 19 18  1  0  0  0  0
 21 18  1  0  0  0  0
 22 14  1  0  0  0  0
 24 14  1  0  0  0  0
 26 16  1  0  0  0  0
M  CHG  1   6  -1
M  END
