
 OpenBabel05032121133D

 23 24  0  0  0  0  0  0  0  0999 V2000
    3.9966    2.9772   -0.8352 C   0  0  0  0  0  0  0  0  0  0  0  0
    4.5564    4.2189   -1.1371 C   0  0  0  0  0  0  0  0  0  0  0  0
    5.9336    4.3456   -1.3616 C   0  0  0  0  0  0  0  0  0  0  0  0
    6.7791    3.2066   -1.2839 C   0  0  0  0  0  0  0  0  0  0  0  0
    4.8120    1.8507   -0.7553 C   0  0  0  0  0  0  0  0  0  0  0  0
    6.1837    1.9689   -0.9775 C   0  0  0  0  0  0  0  0  0  0  0  0
    8.2624    3.2101   -1.5021 C   0  0  0  0  0  0  0  0  0  0  0  0
    9.0163    4.3611   -1.8165 C   0  0  0  0  0  0  0  0  0  0  0  0
   10.3974    4.2593   -2.0010 C   0  0  0  0  0  0  0  0  0  0  0  0
   11.0374    3.0220   -1.8759 C   0  0  0  0  0  0  0  0  0  0  0  0
    8.9252    2.0213   -1.3889 N   0  0  0  0  0  0  0  0  0  0  0  0
   10.2667    1.8996   -1.5641 C   0  0  0  0  0  0  0  0  0  0  0  0
    3.9188    5.0919   -1.1981 H   0  0  0  0  0  0  0  0  0  0  0  0
    6.3961    5.5839   -1.6486 F   0  0  0  0  0  0  0  0  0  0  0  0
    4.3867    0.8838   -0.5218 H   0  0  0  0  0  0  0  0  0  0  0  0
    8.5845    5.3382   -1.9261 H   0  0  0  0  0  0  0  0  0  0  0  0
   10.9659    5.1492   -2.2420 H   0  0  0  0  0  0  0  0  0  0  0  0
   10.7303    0.9269   -1.4599 H   0  0  0  0  0  0  0  0  0  0  0  0
   12.5186    2.8889   -2.0696 C   0  0  0  0  0  0  0  0  0  0  0  0
    2.6625    2.8671   -0.6200 F   0  0  0  0  0  0  0  0  0  0  0  0
   12.9876    3.8664   -2.3114 H   0  0  0  0  0  0  0  0  0  0  0  0
   12.7241    2.1848   -2.9032 H   0  0  0  0  0  0  0  0  0  0  0  0
   12.9827    2.4970   -1.1401 H   0  0  0  0  0  0  0  0  0  0  0  0
  1  5  1  0  0  0  0
  1 20  1  0  0  0  0
  2  1  2  0  0  0  0
  3  4  2  0  0  0  0
  3  2  1  0  0  0  0
  4  6  1  0  0  0  0
  5 15  1  0  0  0  0
  6  5  2  0  0  0  0
  7 11  1  0  0  0  0
  7  4  1  0  0  0  0
  8  7  2  0  0  0  0
  9 10  2  0  0  0  0
  9  8  1  0  0  0  0
 10 12  1  0  0  0  0
 12 18  1  0  0  0  0
 12 11  2  0  0  0  0
 13  2  1  0  0  0  0
 14  3  1  0  0  0  0
 16  8  1  0  0  0  0
 17  9  1  0  0  0  0
 19 10  1  0  0  0  0
 19 23  1  0  0  0  0
 21 19  1  0  0  0  0
 22 19  1  0  0  0  0
M  CHG  1   6  -1
M  END
