
 OpenBabel05032121133D

 23 24  0  0  0  0  0  0  0  0999 V2000
    3.9939    2.9192   -0.8245 C   0  0  0  0  0  0  0  0  0  0  0  0
    4.5065    4.1797   -1.1228 C   0  0  0  0  0  0  0  0  0  0  0  0
    5.8787    4.3691   -1.3577 C   0  0  0  0  0  0  0  0  0  0  0  0
    6.7728    3.2520   -1.2910 C   0  0  0  0  0  0  0  0  0  0  0  0
    4.8476    1.8254   -0.7561 C   0  0  0  0  0  0  0  0  0  0  0  0
    6.2097    1.9964   -0.9862 C   0  0  0  0  0  0  0  0  0  0  0  0
    8.2657    3.2431   -1.5084 C   0  0  0  0  0  0  0  0  0  0  0  0
    9.0571    4.3692   -1.8239 C   0  0  0  0  0  0  0  0  0  0  0  0
   10.4362    4.2297   -2.0015 C   0  0  0  0  0  0  0  0  0  0  0  0
   11.0437    2.9783   -1.8691 C   0  0  0  0  0  0  0  0  0  0  0  0
    8.9045    2.0397   -1.3891 N   0  0  0  0  0  0  0  0  0  0  0  0
   10.2424    1.8797   -1.5571 C   0  0  0  0  0  0  0  0  0  0  0  0
    3.8258    5.0211   -1.1720 H   0  0  0  0  0  0  0  0  0  0  0  0
    6.3219    6.0317   -1.7170 Cl  0  0  0  0  0  0  0  0  0  0  0  0
    4.4599    0.8422   -0.5252 H   0  0  0  0  0  0  0  0  0  0  0  0
    8.6714    5.3569   -1.9422 H   0  0  0  0  0  0  0  0  0  0  0  0
   11.0294    5.1034   -2.2431 H   0  0  0  0  0  0  0  0  0  0  0  0
   10.6785    0.8951   -1.4467 H   0  0  0  0  0  0  0  0  0  0  0  0
   12.5219    2.8057   -2.0553 C   0  0  0  0  0  0  0  0  0  0  0  0
    2.6660    2.7598   -0.6015 F   0  0  0  0  0  0  0  0  0  0  0  0
   13.0173    3.7697   -2.2986 H   0  0  0  0  0  0  0  0  0  0  0  0
   12.7127    2.0933   -2.8854 H   0  0  0  0  0  0  0  0  0  0  0  0
   12.9713    2.4054   -1.1222 H   0  0  0  0  0  0  0  0  0  0  0  0
  1  5  1  0  0  0  0
  1 20  1  0  0  0  0
  2  1  2  0  0  0  0
  3  4  2  0  0  0  0
  3  2  1  0  0  0  0
  4  6  1  0  0  0  0
  5 15  1  0  0  0  0
  6  5  2  0  0  0  0
  7 11  1  0  0  0  0
  7  4  1  0  0  0  0
  8  7  2  0  0  0  0
  9 10  2  0  0  0  0
  9  8  1  0  0  0  0
 10 12  1  0  0  0  0
 12 18  1  0  0  0  0
 12 11  2  0  0  0  0
 13  2  1  0  0  0  0
 14  3  1  0  0  0  0
 16  8  1  0  0  0  0
 17  9  1  0  0  0  0
 19 10  1  0  0  0  0
 19 23  1  0  0  0  0
 21 19  1  0  0  0  0
 22 19  1  0  0  0  0
M  CHG  1   6  -1
M  END
