
 OpenBabel05032121133D

 23 24  0  0  0  0  0  0  0  0999 V2000
    3.9957    2.9040   -0.8221 C   0  0  0  0  0  0  0  0  0  0  0  0
    4.5013    4.1671   -1.1199 C   0  0  0  0  0  0  0  0  0  0  0  0
    5.8724    4.3669   -1.3563 C   0  0  0  0  0  0  0  0  0  0  0  0
    6.7731    3.2527   -1.2912 C   0  0  0  0  0  0  0  0  0  0  0  0
    4.8547    1.8153   -0.7553 C   0  0  0  0  0  0  0  0  0  0  0  0
    6.2151    1.9943   -0.9866 C   0  0  0  0  0  0  0  0  0  0  0  0
    8.2665    3.2418   -1.5083 C   0  0  0  0  0  0  0  0  0  0  0  0
    9.0604    4.3650   -1.8236 C   0  0  0  0  0  0  0  0  0  0  0  0
   10.4394    4.2233   -2.0008 C   0  0  0  0  0  0  0  0  0  0  0  0
   11.0447    2.9711   -1.8679 C   0  0  0  0  0  0  0  0  0  0  0  0
    8.9035    2.0373   -1.3885 N   0  0  0  0  0  0  0  0  0  0  0  0
   10.2412    1.8743   -1.5559 C   0  0  0  0  0  0  0  0  0  0  0  0
    3.8143    5.0032   -1.1671 H   0  0  0  0  0  0  0  0  0  0  0  0
    6.3049    6.1962   -1.7436 Br  0  0  0  0  0  0  0  0  0  0  0  0
    4.4728    0.8297   -0.5249 H   0  0  0  0  0  0  0  0  0  0  0  0
    8.6767    5.3513   -1.9419 H   0  0  0  0  0  0  0  0  0  0  0  0
   11.0340    5.0960   -2.2425 H   0  0  0  0  0  0  0  0  0  0  0  0
   10.6751    0.8887   -1.4451 H   0  0  0  0  0  0  0  0  0  0  0  0
   12.5226    2.7957   -2.0537 C   0  0  0  0  0  0  0  0  0  0  0  0
    2.6688    2.7374   -0.5980 F   0  0  0  0  0  0  0  0  0  0  0  0
   13.0199    3.7587   -2.2971 H   0  0  0  0  0  0  0  0  0  0  0  0
   12.7124    2.0827   -2.8834 H   0  0  0  0  0  0  0  0  0  0  0  0
   12.9710    2.3948   -1.1203 H   0  0  0  0  0  0  0  0  0  0  0  0
  1  5  1  0  0  0  0
  1 20  1  0  0  0  0
  2  1  2  0  0  0  0
  3  4  2  0  0  0  0
  3  2  1  0  0  0  0
  4  6  1  0  0  0  0
  5 15  1  0  0  0  0
  6  5  2  0  0  0  0
  7 11  1  0  0  0  0
  7  4  1  0  0  0  0
  8  7  2  0  0  0  0
  9 10  2  0  0  0  0
  9  8  1  0  0  0  0
 10 12  1  0  0  0  0
 12 18  1  0  0  0  0
 12 11  2  0  0  0  0
 13  2  1  0  0  0  0
 14  3  1  0  0  0  0
 16  8  1  0  0  0  0
 17  9  1  0  0  0  0
 19 10  1  0  0  0  0
 19 23  1  0  0  0  0
 21 19  1  0  0  0  0
 22 19  1  0  0  0  0
M  CHG  1   6  -1
M  END
