
 OpenBabel05032121043D

 23 24  0  0  0  0  0  0  0  0999 V2000
    3.9827    2.9878   -0.8350 C   0  0  0  0  0  0  0  0  0  0  0  0
    4.5469    4.2275   -1.1372 C   0  0  0  0  0  0  0  0  0  0  0  0
    5.9247    4.3495   -1.3609 C   0  0  0  0  0  0  0  0  0  0  0  0
    6.7661    3.2075   -1.2822 C   0  0  0  0  0  0  0  0  0  0  0  0
    4.7943    1.8585   -0.7541 C   0  0  0  0  0  0  0  0  0  0  0  0
    6.1663    1.9721   -0.9755 C   0  0  0  0  0  0  0  0  0  0  0  0
    8.2495    3.2051   -1.4993 C   0  0  0  0  0  0  0  0  0  0  0  0
    9.0086    4.3517   -1.8136 C   0  0  0  0  0  0  0  0  0  0  0  0
   10.3895    4.2442   -1.9972 C   0  0  0  0  0  0  0  0  0  0  0  0
   11.0287    3.0029   -1.8712 C   0  0  0  0  0  0  0  0  0  0  0  0
    8.9067    2.0141   -1.3849 N   0  0  0  0  0  0  0  0  0  0  0  0
   10.2473    1.8855   -1.5588 C   0  0  0  0  0  0  0  0  0  0  0  0
    3.9122    5.1025   -1.1990 H   0  0  0  0  0  0  0  0  0  0  0  0
    6.3920    5.5859   -1.6484 F   0  0  0  0  0  0  0  0  0  0  0  0
    4.3658    0.8931   -0.5204 H   0  0  0  0  0  0  0  0  0  0  0  0
    8.5805    5.3304   -1.9241 H   0  0  0  0  0  0  0  0  0  0  0  0
   10.9529    5.1367   -2.2378 H   0  0  0  0  0  0  0  0  0  0  0  0
   10.7030    0.9093   -1.4528 H   0  0  0  0  0  0  0  0  0  0  0  0
   12.5158    2.8451   -2.0614 C   0  0  0  0  0  0  0  0  0  0  0  0
    2.6481    2.8820   -0.6205 F   0  0  0  0  0  0  0  0  0  0  0  0
   13.1247    4.0508   -2.3641 F   0  0  0  0  0  0  0  0  0  0  0  0
   12.7561    1.9584   -3.0953 F   0  0  0  0  0  0  0  0  0  0  0  0
   13.0781    2.3470   -0.9001 F   0  0  0  0  0  0  0  0  0  0  0  0
  1  5  1  0  0  0  0
  1 20  1  0  0  0  0
  2  1  2  0  0  0  0
  3  4  2  0  0  0  0
  3  2  1  0  0  0  0
  4  6  1  0  0  0  0
  5 15  1  0  0  0  0
  6  5  2  0  0  0  0
  7 11  1  0  0  0  0
  7  4  1  0  0  0  0
  8  7  2  0  0  0  0
  9 10  2  0  0  0  0
  9  8  1  0  0  0  0
 10 12  1  0  0  0  0
 12 18  1  0  0  0  0
 12 11  2  0  0  0  0
 13  2  1  0  0  0  0
 14  3  1  0  0  0  0
 16  8  1  0  0  0  0
 17  9  1  0  0  0  0
 19 10  1  0  0  0  0
 19 23  1  0  0  0  0
 21 19  1  0  0  0  0
 22 19  1  0  0  0  0
M  CHG  1   6  -1
M  END
