
 OpenBabel05032121043D

 23 24  0  0  0  0  0  0  0  0999 V2000
    4.2717    3.1943   -0.5553 C   0  0  0  0  0  0  0  0  0  0  0  0
    4.8913    4.3930   -0.9130 C   0  0  0  0  0  0  0  0  0  0  0  0
    6.2563    4.4177   -1.2179 C   0  0  0  0  0  0  0  0  0  0  0  0
    7.0232    3.2327   -1.1677 C   0  0  0  0  0  0  0  0  0  0  0  0
    5.0164    2.0155   -0.5014 C   0  0  0  0  0  0  0  0  0  0  0  0
    6.3790    2.0374   -0.8052 C   0  0  0  0  0  0  0  0  0  0  0  0
    8.4804    3.1877   -1.4799 C   0  0  0  0  0  0  0  0  0  0  0  0
    9.2195    4.3282   -1.8532 C   0  0  0  0  0  0  0  0  0  0  0  0
   10.5821    4.2099   -2.1311 C   0  0  0  0  0  0  0  0  0  0  0  0
   11.2137    2.9649   -2.0401 C   0  0  0  0  0  0  0  0  0  0  0  0
    9.1280    1.9893   -1.4011 N   0  0  0  0  0  0  0  0  0  0  0  0
   10.4534    1.8519   -1.6673 C   0  0  0  0  0  0  0  0  0  0  0  0
    4.3135    5.3073   -0.9548 H   0  0  0  0  0  0  0  0  0  0  0  0
    6.6861    5.3688   -1.4881 H   0  0  0  0  0  0  0  0  0  0  0  0
    3.2155    3.1799   -0.3203 H   0  0  0  0  0  0  0  0  0  0  0  0
    4.5416    1.0837   -0.2248 H   0  0  0  0  0  0  0  0  0  0  0  0
    8.7746    5.3068   -1.9361 H   0  0  0  0  0  0  0  0  0  0  0  0
   11.1417    5.0919   -2.4171 H   0  0  0  0  0  0  0  0  0  0  0  0
   10.9131    0.8750   -1.5879 H   0  0  0  0  0  0  0  0  0  0  0  0
   12.6758    2.8143   -2.3339 C   0  0  0  0  0  0  0  0  0  0  0  0
   13.1362    3.7855   -2.6146 H   0  0  0  0  0  0  0  0  0  0  0  0
   12.8151    2.1028   -3.1747 H   0  0  0  0  0  0  0  0  0  0  0  0
   13.1978    2.4242   -1.4351 H   0  0  0  0  0  0  0  0  0  0  0  0
  1  5  1  0  0  0  0
  1 15  1  0  0  0  0
  2  1  2  0  0  0  0
  3  4  2  0  0  0  0
  3  2  1  0  0  0  0
  4  6  1  0  0  0  0
  5 16  1  0  0  0  0
  6  5  2  0  0  0  0
  7 11  1  0  0  0  0
  7  4  1  0  0  0  0
  8  7  2  0  0  0  0
  9 10  2  0  0  0  0
  9  8  1  0  0  0  0
 10 12  1  0  0  0  0
 12 19  1  0  0  0  0
 12 11  2  0  0  0  0
 13  2  1  0  0  0  0
 14  3  1  0  0  0  0
 17  8  1  0  0  0  0
 18  9  1  0  0  0  0
 20 10  1  0  0  0  0
 20 23  1  0  0  0  0
 21 20  1  0  0  0  0
 22 20  1  0  0  0  0
M  CHG  1   6  -1
M  END
