
 OpenBabel05032121053D

 33 35  0  0  0  0  0  0  0  0999 V2000
   -5.0299    1.8488   -2.2085 C   0  0  0  0  0  0  0  0  0  0  0  0
   -5.7604    2.9769   -2.5591 C   0  0  0  0  0  0  0  0  0  0  0  0
   -5.2211    4.2539   -2.3737 C   0  0  0  0  0  0  0  0  0  0  0  0
   -3.9210    4.4475   -1.8263 C   0  0  0  0  0  0  0  0  0  0  0  0
   -3.2022    3.2731   -1.4790 C   0  0  0  0  0  0  0  0  0  0  0  0
   -3.7542    1.9954   -1.6698 C   0  0  0  0  0  0  0  0  0  0  0  0
   -5.4551    0.8622   -2.3554 H   0  0  0  0  0  0  0  0  0  0  0  0
   -6.7535    2.8632   -2.9785 H   0  0  0  0  0  0  0  0  0  0  0  0
   -5.8584    5.0651   -2.6737 H   0  0  0  0  0  0  0  0  0  0  0  0
   -3.1922    1.1099   -1.3994 H   0  0  0  0  0  0  0  0  0  0  0  0
   -2.2116    3.3101   -1.0580 H   0  0  0  0  0  0  0  0  0  0  0  0
   -3.3391    5.8472   -1.6270 C   0  0  0  0  0  0  0  0  0  0  0  0
   -4.0795    6.9961   -1.9827 C   0  0  0  0  0  0  0  0  0  0  0  0
   -3.5774    8.2877   -1.8136 C   0  0  0  0  0  0  0  0  0  0  0  0
   -2.2983    8.5225   -1.2766 C   0  0  0  0  0  0  0  0  0  0  0  0
   -2.0470    6.0808   -1.0844 C   0  0  0  0  0  0  0  0  0  0  0  0
   -1.5445    7.3907   -0.9158 C   0  0  0  0  0  0  0  0  0  0  0  0
   -5.0667    6.9412   -2.4016 H   0  0  0  0  0  0  0  0  0  0  0  0
   -4.2254    9.0897   -2.1178 H   0  0  0  0  0  0  0  0  0  0  0  0
   -1.4038    5.2699   -0.7820 H   0  0  0  0  0  0  0  0  0  0  0  0
   -1.7543    9.9213   -1.0934 C   0  0  0  0  0  0  0  0  0  0  0  0
   -2.4963   11.0705   -1.4497 C   0  0  0  0  0  0  0  0  0  0  0  0
   -1.9629   12.3458   -1.2668 C   0  0  0  0  0  0  0  0  0  0  0  0
   -0.6853   12.5056   -0.7278 C   0  0  0  0  0  0  0  0  0  0  0  0
   -0.5041   10.1116   -0.5671 N   0  0  0  0  0  0  0  0  0  0  0  0
    0.0363   11.3528   -0.3800 C   0  0  0  0  0  0  0  0  0  0  0  0
   -0.1079   13.8847   -0.5297 C   0  0  0  0  0  0  0  0  0  0  0  0
   -0.8162   14.6776   -0.8592 H   0  0  0  0  0  0  0  0  0  0  0  0
    0.8262   14.0000   -1.1187 H   0  0  0  0  0  0  0  0  0  0  0  0
    0.1176   14.0579    0.5435 H   0  0  0  0  0  0  0  0  0  0  0  0
   -3.4862   11.0218   -1.8700 H   0  0  0  0  0  0  0  0  0  0  0  0
   -2.5515   13.2112   -1.5478 H   0  0  0  0  0  0  0  0  0  0  0  0
    1.0307   11.4494    0.0405 H   0  0  0  0  0  0  0  0  0  0  0  0
  1  6  2  0  0  0  0
  2  3  2  0  0  0  0
  2  1  1  0  0  0  0
  3  4  1  0  0  0  0
  4 12  1  0  0  0  0
  4  5  2  0  0  0  0
  5 11  1  0  0  0  0
  6  5  1  0  0  0  0
  6 10  1  0  0  0  0
  7  1  1  0  0  0  0
  8  2  1  0  0  0  0
  9  3  1  0  0  0  0
 12 16  2  0  0  0  0
 13 14  2  0  0  0  0
 13 12  1  0  0  0  0
 14 15  1  0  0  0  0
 15 21  1  0  0  0  0
 15 17  2  0  0  0  0
 16 17  1  0  0  0  0
 16 20  1  0  0  0  0
 18 13  1  0  0  0  0
 19 14  1  0  0  0  0
 21 25  2  0  0  0  0
 22 23  2  0  0  0  0
 22 21  1  0  0  0  0
 23 24  1  0  0  0  0
 24 27  1  0  0  0  0
 24 26  2  0  0  0  0
 25 26  1  0  0  0  0
 26 33  1  0  0  0  0
 27 30  1  0  0  0  0
 28 27  1  0  0  0  0
 29 27  1  0  0  0  0
 31 22  1  0  0  0  0
 32 23  1  0  0  0  0
M  CHG  1  17  -1
M  END
