
 OpenBabel05032121053D

 27 29  0  0  0  0  0  0  0  0999 V2000
   -5.6089    2.8232   -0.0136 C   0  0  0  0  0  0  0  0  0  0  0  0
   -4.2134    2.7184   -0.0175 C   0  0  0  0  0  0  0  0  0  0  0  0
   -6.4113    1.6606    0.0154 C   0  0  0  0  0  0  0  0  0  0  0  0
   -5.7813    0.4091    0.0400 C   0  0  0  0  0  0  0  0  0  0  0  0
   -4.3890    0.3095    0.0360 C   0  0  0  0  0  0  0  0  0  0  0  0
   -3.5950    1.4601    0.0073 C   0  0  0  0  0  0  0  0  0  0  0  0
   -2.1270    1.3399    0.0034 C   0  0  0  0  0  0  0  0  0  0  0  0
   -1.3038    2.3785   -0.0229 O   0  0  0  0  0  0  0  0  0  0  0  0
   -0.0954    1.8763   -0.0173 C   0  0  0  0  0  0  0  0  0  0  0  0
   -1.4711    0.1505    0.0265 N   0  0  0  0  0  0  0  0  0  0  0  0
   -0.1813    0.5166    0.0128 C   0  0  0  0  0  0  0  0  0  0  0  0
    1.1284    2.5396   -0.0372 C   0  0  0  0  0  0  0  0  0  0  0  0
    2.2953    1.7511   -0.0252 C   0  0  0  0  0  0  0  0  0  0  0  0
    2.2061    0.3394    0.0060 C   0  0  0  0  0  0  0  0  0  0  0  0
    0.9493   -0.2960    0.0255 C   0  0  0  0  0  0  0  0  0  0  0  0
    1.1807    3.6202   -0.0611 H   0  0  0  0  0  0  0  0  0  0  0  0
    3.2664    2.2284   -0.0400 H   0  0  0  0  0  0  0  0  0  0  0  0
    0.8663   -1.3748    0.0495 H   0  0  0  0  0  0  0  0  0  0  0  0
    3.1094   -0.2565    0.0151 H   0  0  0  0  0  0  0  0  0  0  0  0
   -3.6179    3.6229   -0.0399 H   0  0  0  0  0  0  0  0  0  0  0  0
   -6.0280    3.8159   -0.0335 H   0  0  0  0  0  0  0  0  0  0  0  0
   -7.7721    1.6757    0.0210 O   0  0  0  0  0  0  0  0  0  0  0  0
   -6.3737   -0.4965    0.0624 H   0  0  0  0  0  0  0  0  0  0  0  0
   -8.6359    2.7556    0.0008 C   0  0  0  0  0  0  0  0  0  0  0  0
   -9.2777    2.7197    0.9050 H   0  0  0  0  0  0  0  0  0  0  0  0
   -9.2858    2.6795   -0.8950 H   0  0  0  0  0  0  0  0  0  0  0  0
   -8.1325    3.7373   -0.0235 H   0  0  0  0  0  0  0  0  0  0  0  0
  1  3  1  0  0  0  0
  2  1  2  0  0  0  0
  2  6  1  0  0  0  0
  3 22  1  0  0  0  0
  3  4  2  0  0  0  0
  4 23  1  0  0  0  0
  5  4  1  0  0  0  0
  6  5  2  0  0  0  0
  7  6  1  0  0  0  0
  7 10  2  0  0  0  0
  8  9  1  0  0  0  0
  8  7  1  0  0  0  0
  9 11  2  0  0  0  0
 11 15  1  0  0  0  0
 11 10  1  0  0  0  0
 12 13  2  0  0  0  0
 12  9  1  0  0  0  0
 13 14  1  0  0  0  0
 14 19  1  0  0  0  0
 14 15  2  0  0  0  0
 15 18  1  0  0  0  0
 16 12  1  0  0  0  0
 17 13  1  0  0  0  0
 20  2  1  0  0  0  0
 21  1  1  0  0  0  0
 24 22  1  0  0  0  0
 24 25  1  0  0  0  0
 26 24  1  0  0  0  0
 27 24  1  0  0  0  0
M  CHG  1   5  -1
M  END
