
 OpenBabel05032121123D

 23 24  0  0  0  0  0  0  0  0999 V2000
    4.2992    3.1928   -0.5611 C   0  0  0  0  0  0  0  0  0  0  0  0
    4.9171    4.3940   -0.9189 C   0  0  0  0  0  0  0  0  0  0  0  0
    6.2825    4.4219   -1.2244 C   0  0  0  0  0  0  0  0  0  0  0  0
    7.0518    3.2386   -1.1751 C   0  0  0  0  0  0  0  0  0  0  0  0
    5.0484    2.0156   -0.5085 C   0  0  0  0  0  0  0  0  0  0  0  0
    6.4101    2.0423   -0.8129 C   0  0  0  0  0  0  0  0  0  0  0  0
    8.5090    3.1930   -1.4872 C   0  0  0  0  0  0  0  0  0  0  0  0
    9.2515    4.3314   -1.8608 C   0  0  0  0  0  0  0  0  0  0  0  0
   10.6147    4.2084   -2.1380 C   0  0  0  0  0  0  0  0  0  0  0  0
   11.2427    2.9609   -2.0457 C   0  0  0  0  0  0  0  0  0  0  0  0
    9.1537    1.9932   -1.4074 N   0  0  0  0  0  0  0  0  0  0  0  0
   10.4784    1.8512   -1.6726 C   0  0  0  0  0  0  0  0  0  0  0  0
    4.3402    5.3092   -0.9610 H   0  0  0  0  0  0  0  0  0  0  0  0
    6.7114    5.3738   -1.4946 H   0  0  0  0  0  0  0  0  0  0  0  0
    2.5876    3.1631   -0.1791 Cl  0  0  0  0  0  0  0  0  0  0  0  0
    4.5815    1.0794   -0.2328 H   0  0  0  0  0  0  0  0  0  0  0  0
    8.8078    5.3109   -1.9442 H   0  0  0  0  0  0  0  0  0  0  0  0
   11.1780    5.0880   -2.4244 H   0  0  0  0  0  0  0  0  0  0  0  0
   10.9343    0.8727   -1.5921 H   0  0  0  0  0  0  0  0  0  0  0  0
   12.7047    2.8026   -2.3381 C   0  0  0  0  0  0  0  0  0  0  0  0
   13.1710    3.7707   -2.6195 H   0  0  0  0  0  0  0  0  0  0  0  0
   12.8415    2.0889   -3.1776 H   0  0  0  0  0  0  0  0  0  0  0  0
   13.2241    2.4101   -1.4387 H   0  0  0  0  0  0  0  0  0  0  0  0
  1  5  1  0  0  0  0
  1 15  1  0  0  0  0
  2  1  2  0  0  0  0
  3  4  2  0  0  0  0
  3  2  1  0  0  0  0
  4  6  1  0  0  0  0
  5 16  1  0  0  0  0
  6  5  2  0  0  0  0
  7 11  1  0  0  0  0
  7  4  1  0  0  0  0
  8  7  2  0  0  0  0
  9 10  2  0  0  0  0
  9  8  1  0  0  0  0
 10 12  1  0  0  0  0
 12 19  1  0  0  0  0
 12 11  2  0  0  0  0
 13  2  1  0  0  0  0
 14  3  1  0  0  0  0
 17  8  1  0  0  0  0
 18  9  1  0  0  0  0
 20 10  1  0  0  0  0
 20 23  1  0  0  0  0
 21 20  1  0  0  0  0
 22 20  1  0  0  0  0
M  CHG  1   6  -1
M  END
