
 OpenBabel05032121063D

 24 25  0  0  0  0  0  0  0  0999 V2000
   -5.2970    2.4553    0.2055 C   0  0  0  0  0  0  0  0  0  0  0  0
   -4.6516    3.6942    0.2282 C   0  0  0  0  0  0  0  0  0  0  0  0
   -3.2448    3.7599    0.1912 C   0  0  0  0  0  0  0  0  0  0  0  0
   -5.4499    4.8923    0.2876 C   0  0  0  0  0  0  0  0  0  0  0  0
   -2.4711    2.5719    0.1286 C   0  0  0  0  0  0  0  0  0  0  0  0
   -4.5484    1.2827    0.1454 C   0  0  0  0  0  0  0  0  0  0  0  0
   -6.3800    2.3974    0.2338 H   0  0  0  0  0  0  0  0  0  0  0  0
   -3.1535    1.3430    0.1069 C   0  0  0  0  0  0  0  0  0  0  0  0
   -0.9703    2.5445    0.0812 C   0  0  0  0  0  0  0  0  0  0  0  0
   -0.1773    3.7091    0.1010 C   0  0  0  0  0  0  0  0  0  0  0  0
    1.2186    3.6030    0.0518 C   0  0  0  0  0  0  0  0  0  0  0  0
    1.8347    2.3488   -0.0172 C   0  0  0  0  0  0  0  0  0  0  0  0
   -0.3356    1.3355    0.0137 N   0  0  0  0  0  0  0  0  0  0  0  0
    1.0203    1.2095   -0.0353 C   0  0  0  0  0  0  0  0  0  0  0  0
    3.3373    2.2455   -0.0700 C   0  0  0  0  0  0  0  0  0  0  0  0
    3.6817    1.1900   -0.1226 H   0  0  0  0  0  0  0  0  0  0  0  0
    3.7823    2.7083    0.8367 H   0  0  0  0  0  0  0  0  0  0  0  0
    3.7242    2.7791   -0.9644 H   0  0  0  0  0  0  0  0  0  0  0  0
   -2.7834    4.7369    0.2102 H   0  0  0  0  0  0  0  0  0  0  0  0
   -5.0508    0.3251    0.1275 H   0  0  0  0  0  0  0  0  0  0  0  0
   -0.6097    4.6954    0.1533 H   0  0  0  0  0  0  0  0  0  0  0  0
    1.8241    4.5007    0.0672 H   0  0  0  0  0  0  0  0  0  0  0  0
    1.4606    0.2213   -0.0885 H   0  0  0  0  0  0  0  0  0  0  0  0
   -6.1059    5.8447    0.3353 N   0  0  0  0  0  0  0  0  0  0  0  0
  1  2  1  0  0  0  0
  1  7  1  0  0  0  0
  2  4  1  0  0  0  0
  3 19  1  0  0  0  0
  3  2  2  0  0  0  0
  4 24  3  0  0  0  0
  5  3  1  0  0  0  0
  6  1  2  0  0  0  0
  8  5  2  0  0  0  0
  8  6  1  0  0  0  0
  9 10  1  0  0  0  0
  9  5  1  0  0  0  0
 10 21  1  0  0  0  0
 11 22  1  0  0  0  0
 11 10  2  0  0  0  0
 12 11  1  0  0  0  0
 13  9  2  0  0  0  0
 14 12  2  0  0  0  0
 14 13  1  0  0  0  0
 15 12  1  0  0  0  0
 15 17  1  0  0  0  0
 16 15  1  0  0  0  0
 18 15  1  0  0  0  0
 20  6  1  0  0  0  0
 23 14  1  0  0  0  0
M  CHG  1   8  -1
M  END
