
 OpenBabel05032121063D

 29 30  0  0  0  0  0  0  0  0999 V2000
   -5.1440    2.6953   -0.5501 C   0  0  0  0  0  0  0  0  0  0  0  0
   -4.4588    3.8768   -0.2475 C   0  0  0  0  0  0  0  0  0  0  0  0
   -3.0692    3.8671   -0.0834 C   0  0  0  0  0  0  0  0  0  0  0  0
   -2.3396    2.6660   -0.2192 C   0  0  0  0  0  0  0  0  0  0  0  0
   -4.4319    1.4999   -0.6841 C   0  0  0  0  0  0  0  0  0  0  0  0
   -6.9272    2.7105   -0.7548 S   0  0  0  0  0  0  0  0  0  0  0  0
   -3.0459    1.4898   -0.5204 C   0  0  0  0  0  0  0  0  0  0  0  0
   -0.8591    2.5817   -0.0580 C   0  0  0  0  0  0  0  0  0  0  0  0
   -0.0539    3.6988    0.2431 C   0  0  0  0  0  0  0  0  0  0  0  0
    1.3269    3.5402    0.3789 C   0  0  0  0  0  0  0  0  0  0  0  0
    1.9115    2.2802    0.2176 C   0  0  0  0  0  0  0  0  0  0  0  0
   -0.2557    1.3671   -0.2088 N   0  0  0  0  0  0  0  0  0  0  0  0
    1.0855    1.1906   -0.0809 C   0  0  0  0  0  0  0  0  0  0  0  0
    3.3947    2.1138    0.3643 C   0  0  0  0  0  0  0  0  0  0  0  0
    3.7039    1.0584    0.2077 H   0  0  0  0  0  0  0  0  0  0  0  0
    3.7058    2.4234    1.3842 H   0  0  0  0  0  0  0  0  0  0  0  0
    3.9170    2.7475   -0.3831 H   0  0  0  0  0  0  0  0  0  0  0  0
   -2.5907    4.8053    0.1484 H   0  0  0  0  0  0  0  0  0  0  0  0
   -4.9457    0.5759   -0.9139 H   0  0  0  0  0  0  0  0  0  0  0  0
   -0.4616    4.6883    0.3759 H   0  0  0  0  0  0  0  0  0  0  0  0
    1.9418    4.4015    0.6103 H   0  0  0  0  0  0  0  0  0  0  0  0
    1.5030    0.2008   -0.2126 H   0  0  0  0  0  0  0  0  0  0  0  0
   -5.0007    4.8076   -0.1377 H   0  0  0  0  0  0  0  0  0  0  0  0
   -8.1408    2.4190    0.5614 C   0  0  0  0  0  0  0  0  0  0  0  0
   -7.9812    3.1492    1.3811 H   0  0  0  0  0  0  0  0  0  0  0  0
   -8.0354    1.3823    0.9420 H   0  0  0  0  0  0  0  0  0  0  0  0
   -9.1645    2.5536    0.1550 H   0  0  0  0  0  0  0  0  0  0  0  0
   -7.2977    4.0334   -1.4430 O   0  0  0  0  0  0  0  0  0  0  0  0
   -7.2610    1.7566   -1.9121 O   0  0  0  0  0  0  0  0  0  0  0  0
  1  2  1  0  0  0  0
  2 23  1  0  0  0  0
  2  3  2  0  0  0  0
  3 18  1  0  0  0  0
  4  3  1  0  0  0  0
  4  8  1  0  0  0  0
  5  1  2  0  0  0  0
  5  7  1  0  0  0  0
  6  1  1  0  0  0  0
  6 24  1  0  0  0  0
  7  4  2  0  0  0  0
  8  9  2  0  0  0  0
  9 20  1  0  0  0  0
  9 10  1  0  0  0  0
 10 21  1  0  0  0  0
 11 14  1  0  0  0  0
 11 10  2  0  0  0  0
 12 13  2  0  0  0  0
 12  8  1  0  0  0  0
 13 11  1  0  0  0  0
 14 16  1  0  0  0  0
 15 14  1  0  0  0  0
 17 14  1  0  0  0  0
 19  5  1  0  0  0  0
 22 13  1  0  0  0  0
 24 26  1  0  0  0  0
 24 25  1  0  0  0  0
 27 24  1  0  0  0  0
 28  6  2  0  0  0  0
 29  6  2  0  0  0  0
M  CHG  1   7  -1
M  END
