
 OpenBabel05032121063D

 40 43  0  0  0  0  0  0  0  0999 V2000
   -5.2726    3.3382   -1.1700 C   0  0  0  0  0  0  0  0  0  0  0  0
   -4.5397    4.4871   -0.7839 C   0  0  0  0  0  0  0  0  0  0  0  0
   -3.1884    4.4117   -0.4288 C   0  0  0  0  0  0  0  0  0  0  0  0
   -2.5063    3.1820   -0.4434 C   0  0  0  0  0  0  0  0  0  0  0  0
   -4.5698    2.1100   -1.1787 C   0  0  0  0  0  0  0  0  0  0  0  0
   -3.2232    2.0435   -0.8234 C   0  0  0  0  0  0  0  0  0  0  0  0
   -1.0659    3.0222   -0.0776 C   0  0  0  0  0  0  0  0  0  0  0  0
   -0.2434    4.0981    0.3210 C   0  0  0  0  0  0  0  0  0  0  0  0
    1.1193    3.8940    0.6586 C   0  0  0  0  0  0  0  0  0  0  0  0
    1.6050    2.5684    0.5755 C   0  0  0  0  0  0  0  0  0  0  0  0
   -0.5256    1.7755   -0.1332 N   0  0  0  0  0  0  0  0  0  0  0  0
    0.7678    1.5293    0.1787 C   0  0  0  0  0  0  0  0  0  0  0  0
   -2.7039    5.3328   -0.1473 H   0  0  0  0  0  0  0  0  0  0  0  0
   -5.0238    1.1752   -1.4540 H   0  0  0  0  0  0  0  0  0  0  0  0
   -0.6701    5.0758    0.3641 H   0  0  0  0  0  0  0  0  0  0  0  0
    1.1494    0.5186    0.1182 H   0  0  0  0  0  0  0  0  0  0  0  0
   -4.9795    5.4682   -0.7439 H   0  0  0  0  0  0  0  0  0  0  0  0
   -6.7382    3.4190   -1.5552 C   0  0  0  0  0  0  0  0  0  0  0  0
   -7.4433    4.6508   -1.5453 C   0  0  0  0  0  0  0  0  0  0  0  0
   -8.7935    4.7188   -1.9012 C   0  0  0  0  0  0  0  0  0  0  0  0
   -9.4807    3.5688   -2.2762 C   0  0  0  0  0  0  0  0  0  0  0  0
   -8.8193    2.3452   -2.2965 C   0  0  0  0  0  0  0  0  0  0  0  0
   -7.4692    2.2658   -1.9425 C   0  0  0  0  0  0  0  0  0  0  0  0
    2.0181    5.0412    1.0896 C   0  0  0  0  0  0  0  0  0  0  0  0
    1.5409    6.3764    1.1694 C   0  0  0  0  0  0  0  0  0  0  0  0
    3.3793    4.8285    1.4328 C   0  0  0  0  0  0  0  0  0  0  0  0
    4.2045    5.8850    1.8290 C   0  0  0  0  0  0  0  0  0  0  0  0
    2.3753    7.4253    1.5669 C   0  0  0  0  0  0  0  0  0  0  0  0
    3.7043    7.1810    1.8962 C   0  0  0  0  0  0  0  0  0  0  0  0
    0.5289    6.6526    0.9326 H   0  0  0  0  0  0  0  0  0  0  0  0
    1.9865    8.4344    1.6194 H   0  0  0  0  0  0  0  0  0  0  0  0
    5.2391    5.6952    2.0855 H   0  0  0  0  0  0  0  0  0  0  0  0
    4.3467    7.9961    2.2035 H   0  0  0  0  0  0  0  0  0  0  0  0
    3.8430    3.8584    1.4075 H   0  0  0  0  0  0  0  0  0  0  0  0
    2.6195    2.2964    0.8070 H   0  0  0  0  0  0  0  0  0  0  0  0
   -9.3088    5.6708   -1.8855 H   0  0  0  0  0  0  0  0  0  0  0  0
  -10.5261    3.6259   -2.5510 H   0  0  0  0  0  0  0  0  0  0  0  0
   -6.9844    5.5833   -1.2679 H   0  0  0  0  0  0  0  0  0  0  0  0
   -9.3545    1.4505   -2.5884 H   0  0  0  0  0  0  0  0  0  0  0  0
   -7.0304    1.2845   -1.9838 H   0  0  0  0  0  0  0  0  0  0  0  0
  1  2  1  0  0  0  0
  2 17  1  0  0  0  0
  2  3  2  0  0  0  0
  3 13  1  0  0  0  0
  4  3  1  0  0  0  0
  4  7  1  0  0  0  0
  5  1  2  0  0  0  0
  5  6  1  0  0  0  0
  6  4  2  0  0  0  0
  7  8  1  0  0  0  0
  8 15  1  0  0  0  0
  8  9  2  0  0  0  0
  9 24  1  0  0  0  0
 10  9  1  0  0  0  0
 10 35  1  0  0  0  0
 11  7  2  0  0  0  0
 11 12  1  0  0  0  0
 12 10  2  0  0  0  0
 14  5  1  0  0  0  0
 16 12  1  0  0  0  0
 18 19  1  0  0  0  0
 18  1  1  0  0  0  0
 19 38  1  0  0  0  0
 20 36  1  0  0  0  0
 20 19  2  0  0  0  0
 21 20  1  0  0  0  0
 22 21  2  0  0  0  0
 22 23  1  0  0  0  0
 23 18  2  0  0  0  0
 24 25  2  0  0  0  0
 24 26  1  0  0  0  0
 25 28  1  0  0  0  0
 26 27  2  0  0  0  0
 27 29  1  0  0  0  0
 27 32  1  0  0  0  0
 28 31  1  0  0  0  0
 28 29  2  0  0  0  0
 29 33  1  0  0  0  0
 30 25  1  0  0  0  0
 34 26  1  0  0  0  0
 37 21  1  0  0  0  0
 39 22  1  0  0  0  0
 40 23  1  0  0  0  0
M  CHG  1   6  -1
M  END
