
 OpenBabel05032121073D

 23 24  0  0  0  0  0  0  0  0999 V2000
   -5.3162    3.3706   -1.2130 C   0  0  0  0  0  0  0  0  0  0  0  0
   -4.6118    4.5156   -0.8346 C   0  0  0  0  0  0  0  0  0  0  0  0
   -3.2618    4.4260   -0.4745 C   0  0  0  0  0  0  0  0  0  0  0  0
   -2.5973    3.1793   -0.4897 C   0  0  0  0  0  0  0  0  0  0  0  0
   -4.6728    2.1328   -1.2326 C   0  0  0  0  0  0  0  0  0  0  0  0
   -3.3268    2.0413   -0.8740 C   0  0  0  0  0  0  0  0  0  0  0  0
   -1.1624    3.0090   -0.1190 C   0  0  0  0  0  0  0  0  0  0  0  0
   -0.3393    4.0812    0.2808 C   0  0  0  0  0  0  0  0  0  0  0  0
    0.9960    3.8423    0.6128 C   0  0  0  0  0  0  0  0  0  0  0  0
    1.5173    2.5463    0.5501 C   0  0  0  0  0  0  0  0  0  0  0  0
   -0.6211    1.7575   -0.1691 N   0  0  0  0  0  0  0  0  0  0  0  0
    0.6751    1.5028    0.1497 C   0  0  0  0  0  0  0  0  0  0  0  0
   -2.7612    5.3377   -0.1899 H   0  0  0  0  0  0  0  0  0  0  0  0
   -5.2135    1.2427   -1.5250 H   0  0  0  0  0  0  0  0  0  0  0  0
   -0.6988    5.0960    0.3434 H   0  0  0  0  0  0  0  0  0  0  0  0
    1.0442    0.4872    0.0896 H   0  0  0  0  0  0  0  0  0  0  0  0
   -5.2385    5.7179   -0.8160 F   0  0  0  0  0  0  0  0  0  0  0  0
    2.9518    2.2935    0.9075 C   0  0  0  0  0  0  0  0  0  0  0  0
    1.6249    4.6693    0.9195 H   0  0  0  0  0  0  0  0  0  0  0  0
   -6.3598    3.4419   -1.4911 H   0  0  0  0  0  0  0  0  0  0  0  0
    3.2132    1.2185    0.8080 H   0  0  0  0  0  0  0  0  0  0  0  0
    3.1349    2.6040    1.9577 H   0  0  0  0  0  0  0  0  0  0  0  0
    3.6128    2.8795    0.2347 H   0  0  0  0  0  0  0  0  0  0  0  0
  1  2  1  0  0  0  0
  2 17  1  0  0  0  0
  2  3  2  0  0  0  0
  3 13  1  0  0  0  0
  4  3  1  0  0  0  0
  4  7  1  0  0  0  0
  5  1  2  0  0  0  0
  5  6  1  0  0  0  0
  6  4  2  0  0  0  0
  7  8  1  0  0  0  0
  8 15  1  0  0  0  0
  8  9  2  0  0  0  0
  9 19  1  0  0  0  0
 10  9  1  0  0  0  0
 10 18  1  0  0  0  0
 11  7  2  0  0  0  0
 11 12  1  0  0  0  0
 12 10  2  0  0  0  0
 14  5  1  0  0  0  0
 16 12  1  0  0  0  0
 18 22  1  0  0  0  0
 20  1  1  0  0  0  0
 21 18  1  0  0  0  0
 23 18  1  0  0  0  0
M  CHG  1   6  -1
M  END
