
 OpenBabel05032121073D

 26 27  0  0  0  0  0  0  0  0999 V2000
   -5.2783    3.2222   -1.2263 C   0  0  0  0  0  0  0  0  0  0  0  0
   -4.6023    4.4018   -0.8501 C   0  0  0  0  0  0  0  0  0  0  0  0
   -3.2441    4.3248   -0.4858 C   0  0  0  0  0  0  0  0  0  0  0  0
   -2.5553    3.0927   -0.4919 C   0  0  0  0  0  0  0  0  0  0  0  0
   -4.6016    2.0018   -1.2338 C   0  0  0  0  0  0  0  0  0  0  0  0
   -3.2582    1.9406   -0.8711 C   0  0  0  0  0  0  0  0  0  0  0  0
   -1.1179    2.9514   -0.1159 C   0  0  0  0  0  0  0  0  0  0  0  0
   -0.3148    4.0401    0.2810 C   0  0  0  0  0  0  0  0  0  0  0  0
    1.0234    3.8265    0.6179 C   0  0  0  0  0  0  0  0  0  0  0  0
    1.5681    2.5399    0.5632 C   0  0  0  0  0  0  0  0  0  0  0  0
   -0.5538    1.7096   -0.1580 N   0  0  0  0  0  0  0  0  0  0  0  0
    0.7458    1.4797    0.1655 C   0  0  0  0  0  0  0  0  0  0  0  0
   -2.7474    5.2394   -0.2018 H   0  0  0  0  0  0  0  0  0  0  0  0
   -5.1177    1.0955   -1.5219 H   0  0  0  0  0  0  0  0  0  0  0  0
   -0.6908    5.0490    0.3381 H   0  0  0  0  0  0  0  0  0  0  0  0
    1.1331    0.4705    0.1115 H   0  0  0  0  0  0  0  0  0  0  0  0
   -5.2787    5.7545   -0.8213 C   0  0  0  0  0  0  0  0  0  0  0  0
    3.0057    2.3147    0.9258 C   0  0  0  0  0  0  0  0  0  0  0  0
    1.6367    4.6661    0.9223 H   0  0  0  0  0  0  0  0  0  0  0  0
   -6.5861    3.2357   -1.5868 F   0  0  0  0  0  0  0  0  0  0  0  0
   -6.6075    5.6919   -1.1998 F   0  0  0  0  0  0  0  0  0  0  0  0
   -4.6212    6.6134   -1.6834 F   0  0  0  0  0  0  0  0  0  0  0  0
   -5.2157    6.2705    0.4605 F   0  0  0  0  0  0  0  0  0  0  0  0
    3.2867    1.2440    0.8325 H   0  0  0  0  0  0  0  0  0  0  0  0
    3.1802    2.6336    1.9750 H   0  0  0  0  0  0  0  0  0  0  0  0
    3.6580    2.9092    0.2520 H   0  0  0  0  0  0  0  0  0  0  0  0
  1  2  1  0  0  0  0
  2 17  1  0  0  0  0
  2  3  2  0  0  0  0
  3 13  1  0  0  0  0
  4  3  1  0  0  0  0
  4  7  1  0  0  0  0
  5  1  2  0  0  0  0
  5  6  1  0  0  0  0
  6  4  2  0  0  0  0
  7  8  1  0  0  0  0
  8 15  1  0  0  0  0
  8  9  2  0  0  0  0
  9 19  1  0  0  0  0
 10  9  1  0  0  0  0
 10 18  1  0  0  0  0
 11  7  2  0  0  0  0
 11 12  1  0  0  0  0
 12 10  2  0  0  0  0
 14  5  1  0  0  0  0
 16 12  1  0  0  0  0
 17 23  1  0  0  0  0
 18 25  1  0  0  0  0
 20  1  1  0  0  0  0
 21 17  1  0  0  0  0
 22 17  1  0  0  0  0
 24 18  1  0  0  0  0
 26 18  1  0  0  0  0
M  CHG  1   6  -1
M  END
