
 OpenBabel05032121073D

 23 24  0  0  0  0  0  0  0  0999 V2000
   -5.2854    3.2021   -1.2315 C   0  0  0  0  0  0  0  0  0  0  0  0
   -4.6118    4.3681   -0.8582 C   0  0  0  0  0  0  0  0  0  0  0  0
   -3.2606    4.3140   -0.4921 C   0  0  0  0  0  0  0  0  0  0  0  0
   -2.5655    3.0841   -0.4961 C   0  0  0  0  0  0  0  0  0  0  0  0
   -4.6108    1.9811   -1.2397 C   0  0  0  0  0  0  0  0  0  0  0  0
   -3.2647    1.9258   -0.8752 C   0  0  0  0  0  0  0  0  0  0  0  0
   -1.1283    2.9514   -0.1188 C   0  0  0  0  0  0  0  0  0  0  0  0
   -0.3326    4.0457    0.2769 C   0  0  0  0  0  0  0  0  0  0  0  0
    1.0069    3.8415    0.6157 C   0  0  0  0  0  0  0  0  0  0  0  0
    1.5591    2.5565    0.5633 C   0  0  0  0  0  0  0  0  0  0  0  0
   -0.5569    1.7130   -0.1584 N   0  0  0  0  0  0  0  0  0  0  0  0
    0.7437    1.4921    0.1669 C   0  0  0  0  0  0  0  0  0  0  0  0
   -2.7805    5.2379   -0.2112 H   0  0  0  0  0  0  0  0  0  0  0  0
   -5.1276    1.0755   -1.5279 H   0  0  0  0  0  0  0  0  0  0  0  0
   -0.7166    5.0520    0.3314 H   0  0  0  0  0  0  0  0  0  0  0  0
    1.1406    0.4863    0.1161 H   0  0  0  0  0  0  0  0  0  0  0  0
   -5.4627    5.9026   -0.8487 Cl  0  0  0  0  0  0  0  0  0  0  0  0
    2.9945    2.3119    0.9223 C   0  0  0  0  0  0  0  0  0  0  0  0
    1.6112    4.6878    0.9187 H   0  0  0  0  0  0  0  0  0  0  0  0
   -6.3296    3.2412   -1.5148 H   0  0  0  0  0  0  0  0  0  0  0  0
    3.5076    3.2527    1.2150 H   0  0  0  0  0  0  0  0  0  0  0  0
    3.5282    1.8772    0.0509 H   0  0  0  0  0  0  0  0  0  0  0  0
    3.0503    1.6016    1.7739 H   0  0  0  0  0  0  0  0  0  0  0  0
  1  2  1  0  0  0  0
  2 17  1  0  0  0  0
  2  3  2  0  0  0  0
  3 13  1  0  0  0  0
  4  3  1  0  0  0  0
  4  7  1  0  0  0  0
  5  1  2  0  0  0  0
  5  6  1  0  0  0  0
  6  4  2  0  0  0  0
  7  8  1  0  0  0  0
  8 15  1  0  0  0  0
  8  9  2  0  0  0  0
  9 19  1  0  0  0  0
 10  9  1  0  0  0  0
 10 18  1  0  0  0  0
 11  7  2  0  0  0  0
 11 12  1  0  0  0  0
 12 10  2  0  0  0  0
 14  5  1  0  0  0  0
 16 12  1  0  0  0  0
 18 21  1  0  0  0  0
 18 23  1  0  0  0  0
 20  1  1  0  0  0  0
 22 18  1  0  0  0  0
M  CHG  1   6  -1
M  END
