
 OpenBabel05032121073D

 26 27  0  0  0  0  0  0  0  0999 V2000
   -3.5758    3.1382    0.0295 C   0  0  0  0  0  0  0  0  0  0  0  0
   -4.3507    1.9775   -0.0118 C   0  0  0  0  0  0  0  0  0  0  0  0
   -2.1789    3.0552    0.0100 C   0  0  0  0  0  0  0  0  0  0  0  0
   -1.5367    1.7983   -0.0516 C   0  0  0  0  0  0  0  0  0  0  0  0
   -2.3371    0.6438   -0.0924 C   0  0  0  0  0  0  0  0  0  0  0  0
   -3.7305    0.7293   -0.0728 C   0  0  0  0  0  0  0  0  0  0  0  0
   -0.0542    1.6339   -0.0756 C   0  0  0  0  0  0  0  0  0  0  0  0
    0.4598    0.3728   -0.1359 N   0  0  0  0  0  0  0  0  0  0  0  0
    0.8401    2.7204   -0.0389 C   0  0  0  0  0  0  0  0  0  0  0  0
    2.2170    2.4882   -0.0646 C   0  0  0  0  0  0  0  0  0  0  0  0
    2.7174    1.1751   -0.1270 C   0  0  0  0  0  0  0  0  0  0  0  0
    1.7945    0.1220   -0.1620 C   0  0  0  0  0  0  0  0  0  0  0  0
   -4.0585    4.1059    0.0768 H   0  0  0  0  0  0  0  0  0  0  0  0
   -1.6263    3.9807    0.0437 H   0  0  0  0  0  0  0  0  0  0  0  0
   -5.4308    2.0459    0.0035 H   0  0  0  0  0  0  0  0  0  0  0  0
   -4.3256   -0.1734   -0.1050 H   0  0  0  0  0  0  0  0  0  0  0  0
    0.5044    3.7442    0.0092 H   0  0  0  0  0  0  0  0  0  0  0  0
    2.8763    3.3442   -0.0351 H   0  0  0  0  0  0  0  0  0  0  0  0
    2.1368   -0.9041   -0.2102 H   0  0  0  0  0  0  0  0  0  0  0  0
    4.1947    0.8354   -0.1585 C   0  0  0  0  0  0  0  0  0  0  0  0
    5.1448    2.0329   -0.1176 C   0  0  0  0  0  0  0  0  0  0  0  0
    4.4037    0.2625   -1.0879 H   0  0  0  0  0  0  0  0  0  0  0  0
    4.4242    0.1847    0.7130 H   0  0  0  0  0  0  0  0  0  0  0  0
    4.9787    2.6906   -0.9972 H   0  0  0  0  0  0  0  0  0  0  0  0
    6.1948    1.6724   -0.1452 H   0  0  0  0  0  0  0  0  0  0  0  0
    4.9994    2.6121    0.8190 H   0  0  0  0  0  0  0  0  0  0  0  0
  1 13  1  0  0  0  0
  2 15  1  0  0  0  0
  2  1  2  0  0  0  0
  3  1  1  0  0  0  0
  3 14  1  0  0  0  0
  4  3  2  0  0  0  0
  5  6  2  0  0  0  0
  5  4  1  0  0  0  0
  6  2  1  0  0  0  0
  7  4  1  0  0  0  0
  7  9  2  0  0  0  0
  8  7  1  0  0  0  0
  9 17  1  0  0  0  0
 10  9  1  0  0  0  0
 10 18  1  0  0  0  0
 11 10  2  0  0  0  0
 12  8  2  0  0  0  0
 12 11  1  0  0  0  0
 16  6  1  0  0  0  0
 19 12  1  0  0  0  0
 20 11  1  0  0  0  0
 20 21  1  0  0  0  0
 20 23  1  0  0  0  0
 21 26  1  0  0  0  0
 22 20  1  0  0  0  0
 24 21  1  0  0  0  0
 25 21  1  0  0  0  0
M  CHG  1   5  -1
M  END
