
 OpenBabel05032121073D

 33 35  0  0  0  0  0  0  0  0999 V2000
   -3.5089    3.2479    0.0859 C   0  0  0  0  0  0  0  0  0  0  0  0
   -4.2828    2.0893    0.1728 C   0  0  0  0  0  0  0  0  0  0  0  0
   -2.1143    3.1613    0.0047 C   0  0  0  0  0  0  0  0  0  0  0  0
   -1.4725    1.9018    0.0097 C   0  0  0  0  0  0  0  0  0  0  0  0
   -2.2733    0.7497    0.0975 C   0  0  0  0  0  0  0  0  0  0  0  0
   -3.6641    0.8391    0.1785 C   0  0  0  0  0  0  0  0  0  0  0  0
    0.0084    1.7277   -0.0743 C   0  0  0  0  0  0  0  0  0  0  0  0
    0.5095    0.4652   -0.0640 N   0  0  0  0  0  0  0  0  0  0  0  0
    0.9086    2.8059   -0.1521 C   0  0  0  0  0  0  0  0  0  0  0  0
    2.3043    2.5907   -0.2155 C   0  0  0  0  0  0  0  0  0  0  0  0
    2.7721    1.2418   -0.2269 C   0  0  0  0  0  0  0  0  0  0  0  0
    1.8355    0.2026   -0.1378 C   0  0  0  0  0  0  0  0  0  0  0  0
   -3.9906    4.2173    0.0811 H   0  0  0  0  0  0  0  0  0  0  0  0
   -1.5664    4.0873   -0.0614 H   0  0  0  0  0  0  0  0  0  0  0  0
   -5.3610    2.1609    0.2354 H   0  0  0  0  0  0  0  0  0  0  0  0
   -4.2584   -0.0623    0.2454 H   0  0  0  0  0  0  0  0  0  0  0  0
    0.5379    3.8159   -0.1331 H   0  0  0  0  0  0  0  0  0  0  0  0
    3.1984    3.8002   -0.2419 C   0  0  0  0  0  0  0  0  0  0  0  0
    2.1604   -0.8307   -0.1515 H   0  0  0  0  0  0  0  0  0  0  0  0
    4.2104    0.8145   -0.3973 C   0  0  0  0  0  0  0  0  0  0  0  0
    2.8010    4.9688   -0.9311 C   0  0  0  0  0  0  0  0  0  0  0  0
    4.4272    3.8311    0.4530 C   0  0  0  0  0  0  0  0  0  0  0  0
    5.2347    4.9722    0.4356 C   0  0  0  0  0  0  0  0  0  0  0  0
    3.6145    6.1055   -0.9477 C   0  0  0  0  0  0  0  0  0  0  0  0
    4.8315    6.1064   -0.2677 C   0  0  0  0  0  0  0  0  0  0  0  0
    4.7620    2.9881    1.0404 H   0  0  0  0  0  0  0  0  0  0  0  0
    1.8682    5.0061   -1.4779 H   0  0  0  0  0  0  0  0  0  0  0  0
    3.2989    6.9879   -1.4895 H   0  0  0  0  0  0  0  0  0  0  0  0
    5.4583    6.9887   -0.2791 H   0  0  0  0  0  0  0  0  0  0  0  0
    6.1723    4.9787    0.9765 H   0  0  0  0  0  0  0  0  0  0  0  0
    4.9104    1.6317   -0.6339 H   0  0  0  0  0  0  0  0  0  0  0  0
    4.2793    0.1290   -1.2688 H   0  0  0  0  0  0  0  0  0  0  0  0
    4.5553    0.2713    0.5078 H   0  0  0  0  0  0  0  0  0  0  0  0
  1  2  2  0  0  0  0
  2  6  1  0  0  0  0
  2 15  1  0  0  0  0
  3  4  2  0  0  0  0
  3  1  1  0  0  0  0
  4  5  1  0  0  0  0
  5  6  2  0  0  0  0
  6 16  1  0  0  0  0
  7  8  1  0  0  0  0
  7  4  1  0  0  0  0
  9 17  1  0  0  0  0
  9  7  2  0  0  0  0
 10  9  1  0  0  0  0
 11 10  2  0  0  0  0
 11 12  1  0  0  0  0
 12  8  2  0  0  0  0
 13  1  1  0  0  0  0
 14  3  1  0  0  0  0
 18 10  1  0  0  0  0
 18 22  2  0  0  0  0
 19 12  1  0  0  0  0
 20 11  1  0  0  0  0
 20 33  1  0  0  0  0
 21 18  1  0  0  0  0
 22 26  1  0  0  0  0
 23 22  1  0  0  0  0
 23 30  1  0  0  0  0
 24 21  2  0  0  0  0
 24 25  1  0  0  0  0
 25 23  2  0  0  0  0
 27 21  1  0  0  0  0
 28 24  1  0  0  0  0
 29 25  1  0  0  0  0
 31 20  1  0  0  0  0
 32 20  1  0  0  0  0
M  CHG  1   5  -1
M  END
