
 OpenBabel05032121083D

 30 32  0  0  0  0  0  0  0  0999 V2000
   -3.5928    3.1471   -0.1811 C   0  0  0  0  0  0  0  0  0  0  0  0
   -4.3326    1.9702   -0.0504 C   0  0  0  0  0  0  0  0  0  0  0  0
   -2.1939    3.1088   -0.1558 C   0  0  0  0  0  0  0  0  0  0  0  0
   -1.5124    1.8802    0.0023 C   0  0  0  0  0  0  0  0  0  0  0  0
   -2.2795    0.7092    0.1319 C   0  0  0  0  0  0  0  0  0  0  0  0
   -3.6746    0.7500    0.1062 C   0  0  0  0  0  0  0  0  0  0  0  0
   -0.0236    1.7554    0.0404 C   0  0  0  0  0  0  0  0  0  0  0  0
    0.5115    0.5154    0.2001 N   0  0  0  0  0  0  0  0  0  0  0  0
    0.8496    2.8582   -0.0787 C   0  0  0  0  0  0  0  0  0  0  0  0
    2.2568    2.6873   -0.0323 C   0  0  0  0  0  0  0  0  0  0  0  0
    2.7344    1.3673    0.1373 C   0  0  0  0  0  0  0  0  0  0  0  0
    1.8467    0.3008    0.2500 C   0  0  0  0  0  0  0  0  0  0  0  0
   -4.1035    4.0939   -0.3025 H   0  0  0  0  0  0  0  0  0  0  0  0
   -1.6753    4.0479   -0.2610 H   0  0  0  0  0  0  0  0  0  0  0  0
   -5.6875    2.0130   -0.0755 F   0  0  0  0  0  0  0  0  0  0  0  0
   -4.2407   -0.1662    0.2081 H   0  0  0  0  0  0  0  0  0  0  0  0
    0.4276    3.8318   -0.1992 H   0  0  0  0  0  0  0  0  0  0  0  0
    3.2100    3.8634   -0.1579 C   0  0  0  0  0  0  0  0  0  0  0  0
    2.2220   -0.7060    0.3773 H   0  0  0  0  0  0  0  0  0  0  0  0
    2.7440    5.1787   -0.4208 C   0  0  0  0  0  0  0  0  0  0  0  0
    4.6131    3.6987   -0.0176 C   0  0  0  0  0  0  0  0  0  0  0  0
    5.4886    4.7824   -0.1327 C   0  0  0  0  0  0  0  0  0  0  0  0
    3.6289    6.2549   -0.5352 C   0  0  0  0  0  0  0  0  0  0  0  0
    4.9983    6.0581   -0.3912 C   0  0  0  0  0  0  0  0  0  0  0  0
    5.0708    2.7470    0.1871 H   0  0  0  0  0  0  0  0  0  0  0  0
    1.7030    5.4162   -0.5501 H   0  0  0  0  0  0  0  0  0  0  0  0
    3.2480    7.2480   -0.7376 H   0  0  0  0  0  0  0  0  0  0  0  0
    5.6797    6.8944   -0.4800 H   0  0  0  0  0  0  0  0  0  0  0  0
    6.5545    4.6299   -0.0195 H   0  0  0  0  0  0  0  0  0  0  0  0
    3.7805    1.1204    0.1816 H   0  0  0  0  0  0  0  0  0  0  0  0
  1  3  2  0  0  0  0
  1  2  1  0  0  0  0
  2  6  2  0  0  0  0
  3  4  1  0  0  0  0
  4  7  1  0  0  0  0
  4  5  2  0  0  0  0
  6  5  1  0  0  0  0
  6 16  1  0  0  0  0
  7  8  2  0  0  0  0
  8 12  1  0  0  0  0
  9 10  2  0  0  0  0
  9  7  1  0  0  0  0
 10 11  1  0  0  0  0
 11 30  1  0  0  0  0
 11 12  2  0  0  0  0
 12 19  1  0  0  0  0
 13  1  1  0  0  0  0
 14  3  1  0  0  0  0
 15  2  1  0  0  0  0
 17  9  1  0  0  0  0
 18 10  1  0  0  0  0
 18 21  2  0  0  0  0
 20 18  1  0  0  0  0
 21 25  1  0  0  0  0
 22 29  1  0  0  0  0
 22 21  1  0  0  0  0
 23 20  2  0  0  0  0
 23 24  1  0  0  0  0
 24 22  2  0  0  0  0
 26 20  1  0  0  0  0
 27 23  1  0  0  0  0
 28 24  1  0  0  0  0
M  CHG  1   5  -1
M  END
