
 OpenBabel05032121083D

 33 35  0  0  0  0  0  0  0  0999 V2000
   -3.5516    3.2967    0.0060 C   0  0  0  0  0  0  0  0  0  0  0  0
   -4.3352    2.1423    0.0570 C   0  0  0  0  0  0  0  0  0  0  0  0
   -2.1552    3.2027   -0.0097 C   0  0  0  0  0  0  0  0  0  0  0  0
   -1.5206    1.9399    0.0258 C   0  0  0  0  0  0  0  0  0  0  0  0
   -2.3312    0.7923    0.0767 C   0  0  0  0  0  0  0  0  0  0  0  0
   -3.7237    0.8888    0.0923 C   0  0  0  0  0  0  0  0  0  0  0  0
   -0.0378    1.7558    0.0116 C   0  0  0  0  0  0  0  0  0  0  0  0
    0.4511    0.4914    0.0439 N   0  0  0  0  0  0  0  0  0  0  0  0
    0.8734    2.8253   -0.0349 C   0  0  0  0  0  0  0  0  0  0  0  0
    2.2752    2.6103   -0.0368 C   0  0  0  0  0  0  0  0  0  0  0  0
    2.7289    1.2507    0.0065 C   0  0  0  0  0  0  0  0  0  0  0  0
    1.7754    0.2189    0.0377 C   0  0  0  0  0  0  0  0  0  0  0  0
   -4.0261    4.2694   -0.0217 H   0  0  0  0  0  0  0  0  0  0  0  0
   -1.6012    4.1265   -0.0500 H   0  0  0  0  0  0  0  0  0  0  0  0
   -5.6875    2.2391    0.0719 F   0  0  0  0  0  0  0  0  0  0  0  0
   -4.3240   -0.0104    0.1318 H   0  0  0  0  0  0  0  0  0  0  0  0
    0.4942    3.8291   -0.0481 H   0  0  0  0  0  0  0  0  0  0  0  0
    3.1768    3.8305   -0.1206 C   0  0  0  0  0  0  0  0  0  0  0  0
    2.0819   -0.8194    0.0570 H   0  0  0  0  0  0  0  0  0  0  0  0
    2.7236    4.9981   -0.7891 C   0  0  0  0  0  0  0  0  0  0  0  0
    4.4719    3.8834    0.4459 C   0  0  0  0  0  0  0  0  0  0  0  0
    5.2655    5.0306    0.3453 C   0  0  0  0  0  0  0  0  0  0  0  0
    3.5236    6.1395   -0.8894 C   0  0  0  0  0  0  0  0  0  0  0  0
    4.7939    6.1561   -0.3231 C   0  0  0  0  0  0  0  0  0  0  0  0
    4.8939    3.0762    1.0010 H   0  0  0  0  0  0  0  0  0  0  0  0
    1.7558    5.0430   -1.2663 H   0  0  0  0  0  0  0  0  0  0  0  0
    3.1556    7.0134   -1.4118 H   0  0  0  0  0  0  0  0  0  0  0  0
    5.4116    7.0416   -0.3996 H   0  0  0  0  0  0  0  0  0  0  0  0
    6.2504    5.0469    0.7945 H   0  0  0  0  0  0  0  0  0  0  0  0
    4.1749    0.8199   -0.0364 C   0  0  0  0  0  0  0  0  0  0  0  0
    4.6874    1.2820   -0.9061 H   0  0  0  0  0  0  0  0  0  0  0  0
    4.2751   -0.2813   -0.1445 H   0  0  0  0  0  0  0  0  0  0  0  0
    4.6876    1.0428    0.9153 H   0  0  0  0  0  0  0  0  0  0  0  0
  1  2  1  0  0  0  0
  2 15  1  0  0  0  0
  2  6  2  0  0  0  0
  3  1  2  0  0  0  0
  3  4  1  0  0  0  0
  4  5  2  0  0  0  0
  5  6  1  0  0  0  0
  6 16  1  0  0  0  0
  7  4  1  0  0  0  0
  7  8  2  0  0  0  0
  9  7  1  0  0  0  0
 10  9  2  0  0  0  0
 10 11  1  0  0  0  0
 11 12  2  0  0  0  0
 12  8  1  0  0  0  0
 12 19  1  0  0  0  0
 13  1  1  0  0  0  0
 14  3  1  0  0  0  0
 17  9  1  0  0  0  0
 18 10  1  0  0  0  0
 18 21  2  0  0  0  0
 20 18  1  0  0  0  0
 21 25  1  0  0  0  0
 22 21  1  0  0  0  0
 22 29  1  0  0  0  0
 23 20  2  0  0  0  0
 23 24  1  0  0  0  0
 24 22  2  0  0  0  0
 26 20  1  0  0  0  0
 27 23  1  0  0  0  0
 28 24  1  0  0  0  0
 30 11  1  0  0  0  0
 30 33  1  0  0  0  0
 31 30  1  0  0  0  0
 32 30  1  0  0  0  0
M  CHG  1   5  -1
M  END
