
 OpenBabel05032121083D

 26 27  0  0  0  0  0  0  0  0999 V2000
   -3.4929    3.2735    0.1037 C   0  0  0  0  0  0  0  0  0  0  0  0
   -4.2979    2.1389    0.2347 C   0  0  0  0  0  0  0  0  0  0  0  0
   -2.1040    3.1446   -0.0102 C   0  0  0  0  0  0  0  0  0  0  0  0
   -1.4989    1.8684    0.0057 C   0  0  0  0  0  0  0  0  0  0  0  0
   -2.3275    0.7412    0.1383 C   0  0  0  0  0  0  0  0  0  0  0  0
   -3.7127    0.8712    0.2518 C   0  0  0  0  0  0  0  0  0  0  0  0
   -0.0270    1.6559   -0.1109 C   0  0  0  0  0  0  0  0  0  0  0  0
    0.4504    0.3794   -0.0839 N   0  0  0  0  0  0  0  0  0  0  0  0
    0.8934    2.7122   -0.2478 C   0  0  0  0  0  0  0  0  0  0  0  0
    2.2583    2.4355   -0.3517 C   0  0  0  0  0  0  0  0  0  0  0  0
    2.7208    1.1074   -0.3206 C   0  0  0  0  0  0  0  0  0  0  0  0
    1.7728    0.0854   -0.1832 C   0  0  0  0  0  0  0  0  0  0  0  0
   -3.9423    4.2584    0.0900 H   0  0  0  0  0  0  0  0  0  0  0  0
   -1.5282    4.0510   -0.1089 H   0  0  0  0  0  0  0  0  0  0  0  0
   -6.0381    2.3063    0.3771 Cl  0  0  0  0  0  0  0  0  0  0  0  0
   -4.3257   -0.0147    0.3527 H   0  0  0  0  0  0  0  0  0  0  0  0
    0.5871    3.7459   -0.2766 H   0  0  0  0  0  0  0  0  0  0  0  0
    2.0856   -0.9508   -0.1548 H   0  0  0  0  0  0  0  0  0  0  0  0
    4.1827    0.7200   -0.4270 C   0  0  0  0  0  0  0  0  0  0  0  0
    5.1617    1.8854   -0.5748 C   0  0  0  0  0  0  0  0  0  0  0  0
    4.3063    0.0535   -1.3080 H   0  0  0  0  0  0  0  0  0  0  0  0
    4.4624    0.1498    0.4854 H   0  0  0  0  0  0  0  0  0  0  0  0
    4.9448    2.4597   -1.5005 H   0  0  0  0  0  0  0  0  0  0  0  0
    6.1975    1.4912   -0.6437 H   0  0  0  0  0  0  0  0  0  0  0  0
    5.1022    2.5569    0.3081 H   0  0  0  0  0  0  0  0  0  0  0  0
    2.9383    3.2691   -0.4556 H   0  0  0  0  0  0  0  0  0  0  0  0
  1  2  2  0  0  0  0
  2  6  1  0  0  0  0
  2 15  1  0  0  0  0
  3  4  2  0  0  0  0
  3  1  1  0  0  0  0
  4  5  1  0  0  0  0
  5  6  2  0  0  0  0
  6 16  1  0  0  0  0
  7  8  1  0  0  0  0
  7  4  1  0  0  0  0
  9  7  2  0  0  0  0
 10 11  2  0  0  0  0
 10  9  1  0  0  0  0
 11 12  1  0  0  0  0
 12 18  1  0  0  0  0
 12  8  2  0  0  0  0
 13  1  1  0  0  0  0
 14  3  1  0  0  0  0
 17  9  1  0  0  0  0
 19 11  1  0  0  0  0
 19 22  1  0  0  0  0
 20 19  1  0  0  0  0
 20 25  1  0  0  0  0
 21 19  1  0  0  0  0
 23 20  1  0  0  0  0
 24 20  1  0  0  0  0
 26 10  1  0  0  0  0
M  CHG  1   5  -1
M  END
