
 OpenBabel05032121083D

 30 32  0  0  0  0  0  0  0  0999 V2000
   -3.5799    3.1399   -0.1982 C   0  0  0  0  0  0  0  0  0  0  0  0
   -4.3196    1.9626   -0.0624 C   0  0  0  0  0  0  0  0  0  0  0  0
   -2.1811    3.1035   -0.1666 C   0  0  0  0  0  0  0  0  0  0  0  0
   -1.4986    1.8773    0.0030 C   0  0  0  0  0  0  0  0  0  0  0  0
   -2.2644    0.7063    0.1374 C   0  0  0  0  0  0  0  0  0  0  0  0
   -3.6593    0.7442    0.1056 C   0  0  0  0  0  0  0  0  0  0  0  0
   -0.0098    1.7549    0.0478 C   0  0  0  0  0  0  0  0  0  0  0  0
    0.5263    0.5165    0.2172 N   0  0  0  0  0  0  0  0  0  0  0  0
    0.8625    2.8579   -0.0754 C   0  0  0  0  0  0  0  0  0  0  0  0
    2.2700    2.6893   -0.0241 C   0  0  0  0  0  0  0  0  0  0  0  0
    2.7483    1.3706    0.1549 C   0  0  0  0  0  0  0  0  0  0  0  0
    1.8615    0.3039    0.2723 C   0  0  0  0  0  0  0  0  0  0  0  0
   -4.0881    4.0870   -0.3287 H   0  0  0  0  0  0  0  0  0  0  0  0
   -1.6634    4.0425   -0.2763 H   0  0  0  0  0  0  0  0  0  0  0  0
   -6.0725    2.0149   -0.1028 Cl  0  0  0  0  0  0  0  0  0  0  0  0
   -4.2212   -0.1743    0.2119 H   0  0  0  0  0  0  0  0  0  0  0  0
    0.4391    3.8294   -0.2055 H   0  0  0  0  0  0  0  0  0  0  0  0
    3.2226    3.8660   -0.1546 C   0  0  0  0  0  0  0  0  0  0  0  0
    2.2376   -0.7016    0.4078 H   0  0  0  0  0  0  0  0  0  0  0  0
    2.7534    5.1861   -0.3867 C   0  0  0  0  0  0  0  0  0  0  0  0
    4.6284    3.6974   -0.0500 C   0  0  0  0  0  0  0  0  0  0  0  0
    5.5031    4.7812   -0.1698 C   0  0  0  0  0  0  0  0  0  0  0  0
    3.6375    6.2625   -0.5056 C   0  0  0  0  0  0  0  0  0  0  0  0
    5.0094    6.0614   -0.3973 C   0  0  0  0  0  0  0  0  0  0  0  0
    5.0899    2.7422    0.1275 H   0  0  0  0  0  0  0  0  0  0  0  0
    1.7103    5.4285   -0.4857 H   0  0  0  0  0  0  0  0  0  0  0  0
    3.2538    7.2592   -0.6834 H   0  0  0  0  0  0  0  0  0  0  0  0
    5.6902    6.8978   -0.4897 H   0  0  0  0  0  0  0  0  0  0  0  0
    6.5711    4.6252   -0.0850 H   0  0  0  0  0  0  0  0  0  0  0  0
    3.7942    1.1246    0.2058 H   0  0  0  0  0  0  0  0  0  0  0  0
  1  3  2  0  0  0  0
  1  2  1  0  0  0  0
  2  6  2  0  0  0  0
  3  4  1  0  0  0  0
  4  7  1  0  0  0  0
  4  5  2  0  0  0  0
  6  5  1  0  0  0  0
  6 16  1  0  0  0  0
  7  8  2  0  0  0  0
  8 12  1  0  0  0  0
  9 10  2  0  0  0  0
  9  7  1  0  0  0  0
 10 11  1  0  0  0  0
 11 30  1  0  0  0  0
 11 12  2  0  0  0  0
 12 19  1  0  0  0  0
 13  1  1  0  0  0  0
 14  3  1  0  0  0  0
 15  2  1  0  0  0  0
 17  9  1  0  0  0  0
 18 21  1  0  0  0  0
 18 10  1  0  0  0  0
 20 18  2  0  0  0  0
 21 25  1  0  0  0  0
 22 29  1  0  0  0  0
 22 21  2  0  0  0  0
 23 24  2  0  0  0  0
 23 20  1  0  0  0  0
 24 22  1  0  0  0  0
 26 20  1  0  0  0  0
 27 23  1  0  0  0  0
 28 24  1  0  0  0  0
M  CHG  1   5  -1
M  END
