
 OpenBabel05032121083D

 26 27  0  0  0  0  0  0  0  0999 V2000
   -3.4870    3.2726    0.1033 C   0  0  0  0  0  0  0  0  0  0  0  0
   -4.2918    2.1381    0.2342 C   0  0  0  0  0  0  0  0  0  0  0  0
   -2.0981    3.1439   -0.0106 C   0  0  0  0  0  0  0  0  0  0  0  0
   -1.4930    1.8677    0.0052 C   0  0  0  0  0  0  0  0  0  0  0  0
   -2.3215    0.7405    0.1378 C   0  0  0  0  0  0  0  0  0  0  0  0
   -3.7067    0.8705    0.2513 C   0  0  0  0  0  0  0  0  0  0  0  0
   -0.0210    1.6552   -0.1114 C   0  0  0  0  0  0  0  0  0  0  0  0
    0.4564    0.3788   -0.0844 N   0  0  0  0  0  0  0  0  0  0  0  0
    0.8993    2.7117   -0.2483 C   0  0  0  0  0  0  0  0  0  0  0  0
    2.2642    2.4350   -0.3522 C   0  0  0  0  0  0  0  0  0  0  0  0
    2.7268    1.1069   -0.3211 C   0  0  0  0  0  0  0  0  0  0  0  0
    1.7788    0.0848   -0.1837 C   0  0  0  0  0  0  0  0  0  0  0  0
   -3.9370    4.2571    0.0896 H   0  0  0  0  0  0  0  0  0  0  0  0
   -1.5224    4.0503   -0.1094 H   0  0  0  0  0  0  0  0  0  0  0  0
   -6.1866    2.3202    0.3892 Br  0  0  0  0  0  0  0  0  0  0  0  0
   -4.3201   -0.0149    0.3522 H   0  0  0  0  0  0  0  0  0  0  0  0
    0.5930    3.7453   -0.2771 H   0  0  0  0  0  0  0  0  0  0  0  0
    2.0917   -0.9513   -0.1553 H   0  0  0  0  0  0  0  0  0  0  0  0
    4.1888    0.7196   -0.4275 C   0  0  0  0  0  0  0  0  0  0  0  0
    5.1676    1.8851   -0.5753 C   0  0  0  0  0  0  0  0  0  0  0  0
    4.3124    0.0531   -1.3085 H   0  0  0  0  0  0  0  0  0  0  0  0
    4.4684    0.1494    0.4849 H   0  0  0  0  0  0  0  0  0  0  0  0
    4.9508    2.4594   -1.5010 H   0  0  0  0  0  0  0  0  0  0  0  0
    6.2035    1.4909   -0.6442 H   0  0  0  0  0  0  0  0  0  0  0  0
    5.1081    2.5565    0.3076 H   0  0  0  0  0  0  0  0  0  0  0  0
    2.9442    3.2687   -0.4561 H   0  0  0  0  0  0  0  0  0  0  0  0
  1  2  2  0  0  0  0
  2  6  1  0  0  0  0
  2 15  1  0  0  0  0
  3  4  2  0  0  0  0
  3  1  1  0  0  0  0
  4  5  1  0  0  0  0
  5  6  2  0  0  0  0
  6 16  1  0  0  0  0
  7  8  1  0  0  0  0
  7  4  1  0  0  0  0
  9  7  2  0  0  0  0
 10 11  2  0  0  0  0
 10  9  1  0  0  0  0
 11 12  1  0  0  0  0
 12 18  1  0  0  0  0
 12  8  2  0  0  0  0
 13  1  1  0  0  0  0
 14  3  1  0  0  0  0
 17  9  1  0  0  0  0
 19 11  1  0  0  0  0
 19 22  1  0  0  0  0
 20 19  1  0  0  0  0
 20 25  1  0  0  0  0
 21 19  1  0  0  0  0
 23 20  1  0  0  0  0
 24 20  1  0  0  0  0
 26 10  1  0  0  0  0
M  CHG  1   5  -1
M  END
