
 OpenBabel05032121083D

 30 32  0  0  0  0  0  0  0  0999 V2000
   -3.5745    3.1353   -0.2165 C   0  0  0  0  0  0  0  0  0  0  0  0
   -4.3137    1.9585   -0.0756 C   0  0  0  0  0  0  0  0  0  0  0  0
   -2.1759    3.1004   -0.1782 C   0  0  0  0  0  0  0  0  0  0  0  0
   -1.4930    1.8760    0.0033 C   0  0  0  0  0  0  0  0  0  0  0  0
   -2.2585    0.7054    0.1427 C   0  0  0  0  0  0  0  0  0  0  0  0
   -3.6533    0.7420    0.1043 C   0  0  0  0  0  0  0  0  0  0  0  0
   -0.0043    1.7552    0.0554 C   0  0  0  0  0  0  0  0  0  0  0  0
    0.5319    0.5184    0.2352 N   0  0  0  0  0  0  0  0  0  0  0  0
    0.8676    2.8579   -0.0723 C   0  0  0  0  0  0  0  0  0  0  0  0
    2.2752    2.6908   -0.0155 C   0  0  0  0  0  0  0  0  0  0  0  0
    2.7536    1.3735    0.1739 C   0  0  0  0  0  0  0  0  0  0  0  0
    1.8670    0.3071    0.2961 C   0  0  0  0  0  0  0  0  0  0  0  0
   -4.0834    4.0806   -0.3562 H   0  0  0  0  0  0  0  0  0  0  0  0
   -1.6585    4.0391   -0.2924 H   0  0  0  0  0  0  0  0  0  0  0  0
   -6.2220    2.0134   -0.1288 Br  0  0  0  0  0  0  0  0  0  0  0  0
   -4.2154   -0.1757    0.2146 H   0  0  0  0  0  0  0  0  0  0  0  0
    0.4438    3.8277   -0.2129 H   0  0  0  0  0  0  0  0  0  0  0  0
    3.2275    3.8673   -0.1511 C   0  0  0  0  0  0  0  0  0  0  0  0
    2.2433   -0.6971    0.4405 H   0  0  0  0  0  0  0  0  0  0  0  0
    2.7565    5.1922   -0.3502 C   0  0  0  0  0  0  0  0  0  0  0  0
    4.6352    3.6938   -0.0846 C   0  0  0  0  0  0  0  0  0  0  0  0
    5.5096    4.7773   -0.2095 C   0  0  0  0  0  0  0  0  0  0  0  0
    3.6403    6.2683   -0.4739 C   0  0  0  0  0  0  0  0  0  0  0  0
    5.0140    6.0622   -0.4037 C   0  0  0  0  0  0  0  0  0  0  0  0
    5.0987    2.7348    0.0636 H   0  0  0  0  0  0  0  0  0  0  0  0
    1.7120    5.4394   -0.4166 H   0  0  0  0  0  0  0  0  0  0  0  0
    3.2551    7.2688   -0.6252 H   0  0  0  0  0  0  0  0  0  0  0  0
    5.6945    6.8984   -0.5000 H   0  0  0  0  0  0  0  0  0  0  0  0
    6.5790    4.6173   -0.1549 H   0  0  0  0  0  0  0  0  0  0  0  0
    3.7993    1.1284    0.2319 H   0  0  0  0  0  0  0  0  0  0  0  0
  1  3  2  0  0  0  0
  1  2  1  0  0  0  0
  2  6  2  0  0  0  0
  3  4  1  0  0  0  0
  4  7  1  0  0  0  0
  4  5  2  0  0  0  0
  6  5  1  0  0  0  0
  6 16  1  0  0  0  0
  7  8  2  0  0  0  0
  8 12  1  0  0  0  0
  9 10  2  0  0  0  0
  9  7  1  0  0  0  0
 10 11  1  0  0  0  0
 11 30  1  0  0  0  0
 11 12  2  0  0  0  0
 12 19  1  0  0  0  0
 13  1  1  0  0  0  0
 14  3  1  0  0  0  0
 15  2  1  0  0  0  0
 17  9  1  0  0  0  0
 18 21  1  0  0  0  0
 18 10  1  0  0  0  0
 20 18  2  0  0  0  0
 21 25  1  0  0  0  0
 22 29  1  0  0  0  0
 22 21  2  0  0  0  0
 23 24  2  0  0  0  0
 23 20  1  0  0  0  0
 24 22  1  0  0  0  0
 26 20  1  0  0  0  0
 27 23  1  0  0  0  0
 28 24  1  0  0  0  0
M  CHG  1   5  -1
M  END
