
 OpenBabel05032121083D

 33 35  0  0  0  0  0  0  0  0999 V2000
   -3.5339    3.2827   -0.0341 C   0  0  0  0  0  0  0  0  0  0  0  0
   -4.3108    2.1306    0.1091 C   0  0  0  0  0  0  0  0  0  0  0  0
   -2.1374    3.1946   -0.0609 C   0  0  0  0  0  0  0  0  0  0  0  0
   -1.4953    1.9411    0.0565 C   0  0  0  0  0  0  0  0  0  0  0  0
   -2.2976    0.7959    0.1990 C   0  0  0  0  0  0  0  0  0  0  0  0
   -3.6902    0.8857    0.2257 C   0  0  0  0  0  0  0  0  0  0  0  0
   -0.0122    1.7662    0.0361 C   0  0  0  0  0  0  0  0  0  0  0  0
    0.4892    0.5094    0.1548 N   0  0  0  0  0  0  0  0  0  0  0  0
    0.8893    2.8389   -0.0886 C   0  0  0  0  0  0  0  0  0  0  0  0
    2.2865    2.6242   -0.0885 C   0  0  0  0  0  0  0  0  0  0  0  0
    2.7555    1.2795    0.0139 C   0  0  0  0  0  0  0  0  0  0  0  0
    1.8171    0.2465    0.1457 C   0  0  0  0  0  0  0  0  0  0  0  0
   -4.0117    4.2499   -0.1252 H   0  0  0  0  0  0  0  0  0  0  0  0
   -1.5881    4.1152   -0.1744 H   0  0  0  0  0  0  0  0  0  0  0  0
   -6.2161    2.2580    0.1449 Br  0  0  0  0  0  0  0  0  0  0  0  0
   -4.2817   -0.0133    0.3368 H   0  0  0  0  0  0  0  0  0  0  0  0
    0.5175    3.8464   -0.1556 H   0  0  0  0  0  0  0  0  0  0  0  0
    3.1800    3.8316   -0.1717 C   0  0  0  0  0  0  0  0  0  0  0  0
    2.1431   -0.7840    0.2179 H   0  0  0  0  0  0  0  0  0  0  0  0
    2.8057    4.9458   -0.9571 C   0  0  0  0  0  0  0  0  0  0  0  0
    4.3841    3.9168    0.5609 C   0  0  0  0  0  0  0  0  0  0  0  0
    5.1908    5.0562    0.4887 C   0  0  0  0  0  0  0  0  0  0  0  0
    3.6184    6.0810   -1.0282 C   0  0  0  0  0  0  0  0  0  0  0  0
    4.8113    6.1352   -0.3086 C   0  0  0  0  0  0  0  0  0  0  0  0
    4.6990    3.1196    1.2191 H   0  0  0  0  0  0  0  0  0  0  0  0
    1.8924    4.9403   -1.5369 H   0  0  0  0  0  0  0  0  0  0  0  0
    3.3211    6.9207   -1.6430 H   0  0  0  0  0  0  0  0  0  0  0  0
    5.4374    7.0164   -0.3623 H   0  0  0  0  0  0  0  0  0  0  0  0
    6.1092    5.1050    1.0596 H   0  0  0  0  0  0  0  0  0  0  0  0
    4.1991    0.8458   -0.0756 C   0  0  0  0  0  0  0  0  0  0  0  0
    4.9063    1.6461   -0.3465 H   0  0  0  0  0  0  0  0  0  0  0  0
    4.2986    0.0994   -0.8924 H   0  0  0  0  0  0  0  0  0  0  0  0
    4.5130    0.3706    0.8776 H   0  0  0  0  0  0  0  0  0  0  0  0
  1  2  1  0  0  0  0
  2 15  1  0  0  0  0
  2  6  2  0  0  0  0
  3  1  2  0  0  0  0
  3  4  1  0  0  0  0
  4  5  2  0  0  0  0
  5  6  1  0  0  0  0
  6 16  1  0  0  0  0
  7  4  1  0  0  0  0
  7  8  2  0  0  0  0
  9 10  2  0  0  0  0
  9  7  1  0  0  0  0
 10 11  1  0  0  0  0
 11 12  2  0  0  0  0
 12  8  1  0  0  0  0
 12 19  1  0  0  0  0
 13  1  1  0  0  0  0
 14  3  1  0  0  0  0
 17  9  1  0  0  0  0
 18 10  1  0  0  0  0
 18 21  2  0  0  0  0
 20 18  1  0  0  0  0
 21 25  1  0  0  0  0
 22 21  1  0  0  0  0
 22 29  1  0  0  0  0
 23 20  2  0  0  0  0
 23 24  1  0  0  0  0
 24 22  2  0  0  0  0
 26 20  1  0  0  0  0
 27 23  1  0  0  0  0
 28 24  1  0  0  0  0
 30 11  1  0  0  0  0
 30 33  1  0  0  0  0
 31 30  1  0  0  0  0
 32 30  1  0  0  0  0
M  CHG  1   5  -1
M  END
