
 OpenBabel05032121083D

 27 29  0  0  0  0  0  0  0  0999 V2000
   -5.7922    2.8103    0.0316 C   0  0  0  0  0  0  0  0  0  0  0  0
   -4.3934    2.8285    0.0497 C   0  0  0  0  0  0  0  0  0  0  0  0
   -6.4884    1.5866   -0.0467 C   0  0  0  0  0  0  0  0  0  0  0  0
   -5.7573    0.3942   -0.1057 C   0  0  0  0  0  0  0  0  0  0  0  0
   -4.3615    0.4156   -0.0875 C   0  0  0  0  0  0  0  0  0  0  0  0
   -3.6656    1.6280   -0.0099 C   0  0  0  0  0  0  0  0  0  0  0  0
   -2.1887    1.6146    0.0072 C   0  0  0  0  0  0  0  0  0  0  0  0
   -1.1915    2.9886    0.0976 S   0  0  0  0  0  0  0  0  0  0  0  0
    0.2098    2.0678    0.0617 C   0  0  0  0  0  0  0  0  0  0  0  0
   -1.4611    0.4696   -0.0496 N   0  0  0  0  0  0  0  0  0  0  0  0
   -0.1291    0.7272   -0.0189 C   0  0  0  0  0  0  0  0  0  0  0  0
    1.5349    2.4946    0.1019 C   0  0  0  0  0  0  0  0  0  0  0  0
    2.5447    1.5200    0.0583 C   0  0  0  0  0  0  0  0  0  0  0  0
    2.2118    0.1532   -0.0238 C   0  0  0  0  0  0  0  0  0  0  0  0
    0.8660   -0.2510   -0.0630 C   0  0  0  0  0  0  0  0  0  0  0  0
    1.7804    3.5468    0.1650 H   0  0  0  0  0  0  0  0  0  0  0  0
    3.5840    1.8204    0.0878 H   0  0  0  0  0  0  0  0  0  0  0  0
    0.6088   -1.3006   -0.1260 H   0  0  0  0  0  0  0  0  0  0  0  0
    2.9974   -0.5905   -0.0570 H   0  0  0  0  0  0  0  0  0  0  0  0
   -3.8873    3.7830    0.1103 H   0  0  0  0  0  0  0  0  0  0  0  0
   -6.3176    3.7538    0.0790 H   0  0  0  0  0  0  0  0  0  0  0  0
   -7.8454    1.5076   -0.0678 O   0  0  0  0  0  0  0  0  0  0  0  0
   -6.2710   -0.5564   -0.1662 H   0  0  0  0  0  0  0  0  0  0  0  0
   -8.7373    2.5614   -0.0189 C   0  0  0  0  0  0  0  0  0  0  0  0
   -8.5767    3.2706    1.1585 F   0  0  0  0  0  0  0  0  0  0  0  0
  -10.0241    2.0610   -0.0632 F   0  0  0  0  0  0  0  0  0  0  0  0
   -8.5488    3.3992   -1.1041 F   0  0  0  0  0  0  0  0  0  0  0  0
  1  2  1  0  0  0  0
  1 21  1  0  0  0  0
  2 20  1  0  0  0  0
  3  1  2  0  0  0  0
  4  5  2  0  0  0  0
  4  3  1  0  0  0  0
  5  6  1  0  0  0  0
  6  7  1  0  0  0  0
  6  2  2  0  0  0  0
  7  8  1  0  0  0  0
  9  8  1  0  0  0  0
  9 12  1  0  0  0  0
 10 11  1  0  0  0  0
 10  7  2  0  0  0  0
 11  9  2  0  0  0  0
 12 16  1  0  0  0  0
 13 17  1  0  0  0  0
 13 12  2  0  0  0  0
 14 13  1  0  0  0  0
 15 14  2  0  0  0  0
 15 11  1  0  0  0  0
 18 15  1  0  0  0  0
 19 14  1  0  0  0  0
 22  3  1  0  0  0  0
 22 24  1  0  0  0  0
 23  4  1  0  0  0  0
 24 25  1  0  0  0  0
 26 24  1  0  0  0  0
 27 24  1  0  0  0  0
M  CHG  1   5  -1
M  END
