
 OpenBabel05032121093D

 29 31  0  0  0  0  0  0  0  0999 V2000
   -5.2164    3.0198    0.1589 C   0  0  0  0  0  0  0  0  0  0  0  0
   -3.8170    2.9294    0.2496 C   0  0  0  0  0  0  0  0  0  0  0  0
   -5.9852    1.8517   -0.0579 C   0  0  0  0  0  0  0  0  0  0  0  0
   -5.3419    0.6148   -0.1800 C   0  0  0  0  0  0  0  0  0  0  0  0
   -3.9525    0.5379   -0.0881 C   0  0  0  0  0  0  0  0  0  0  0  0
   -3.1673    1.6817    0.1265 C   0  0  0  0  0  0  0  0  0  0  0  0
   -7.3829    1.9441   -0.1482 C   0  0  0  0  0  0  0  0  0  0  0  0
   -8.0130    3.1855   -0.0245 C   0  0  0  0  0  0  0  0  0  0  0  0
   -7.2556    4.3399    0.1895 C   0  0  0  0  0  0  0  0  0  0  0  0
   -5.8630    4.2608    0.2813 C   0  0  0  0  0  0  0  0  0  0  0  0
   -7.7490    5.2986    0.2845 H   0  0  0  0  0  0  0  0  0  0  0  0
   -5.2934    5.1674    0.4475 H   0  0  0  0  0  0  0  0  0  0  0  0
   -7.9860    1.0593   -0.3139 H   0  0  0  0  0  0  0  0  0  0  0  0
   -9.0910    3.2529   -0.0947 H   0  0  0  0  0  0  0  0  0  0  0  0
   -5.9085   -0.2930   -0.3461 H   0  0  0  0  0  0  0  0  0  0  0  0
   -3.2581    3.8375    0.4152 H   0  0  0  0  0  0  0  0  0  0  0  0
   -1.6868    1.5140    0.2126 C   0  0  0  0  0  0  0  0  0  0  0  0
   -0.8005    2.5897    0.4255 C   0  0  0  0  0  0  0  0  0  0  0  0
    0.5740    2.3517    0.4941 C   0  0  0  0  0  0  0  0  0  0  0  0
    1.0722    1.0516    0.3524 C   0  0  0  0  0  0  0  0  0  0  0  0
   -1.1657    0.2600    0.0789 N   0  0  0  0  0  0  0  0  0  0  0  0
    0.1677    0.0063    0.1423 C   0  0  0  0  0  0  0  0  0  0  0  0
    2.5438    0.7710    0.4223 C   0  0  0  0  0  0  0  0  0  0  0  0
    3.1282    1.7002    0.5928 H   0  0  0  0  0  0  0  0  0  0  0  0
    2.8821    0.3132   -0.5311 H   0  0  0  0  0  0  0  0  0  0  0  0
    2.7504    0.0679    1.2565 H   0  0  0  0  0  0  0  0  0  0  0  0
   -1.1391    3.6070    0.5401 H   0  0  0  0  0  0  0  0  0  0  0  0
    1.2476    3.1838    0.6579 H   0  0  0  0  0  0  0  0  0  0  0  0
    0.5210   -1.0106    0.0288 H   0  0  0  0  0  0  0  0  0  0  0  0
  1  2  1  0  0  0  0
  1 10  1  0  0  0  0
  2 16  1  0  0  0  0
  3  1  2  0  0  0  0
  4  5  2  0  0  0  0
  4  3  1  0  0  0  0
  5  6  1  0  0  0  0
  6 17  1  0  0  0  0
  6  2  2  0  0  0  0
  7  3  1  0  0  0  0
  7  8  2  0  0  0  0
  8  9  1  0  0  0  0
  9 10  2  0  0  0  0
  9 11  1  0  0  0  0
 10 12  1  0  0  0  0
 13  7  1  0  0  0  0
 14  8  1  0  0  0  0
 15  4  1  0  0  0  0
 17 18  2  0  0  0  0
 18 19  1  0  0  0  0
 18 27  1  0  0  0  0
 19 28  1  0  0  0  0
 20 23  1  0  0  0  0
 20 19  2  0  0  0  0
 21 22  2  0  0  0  0
 21 17  1  0  0  0  0
 22 20  1  0  0  0  0
 23 24  1  0  0  0  0
 23 26  1  0  0  0  0
 25 23  1  0  0  0  0
 29 22  1  0  0  0  0
M  CHG  1   5  -1
M  END
