
 OpenBabel05032120293D

 20 21  0  0  0  0  0  0  0  0999 V2000
    4.3152    3.1988   -0.5657 C   0  0  0  0  0  0  0  0  0  0  0  0
    4.9534    4.3841   -0.9250 C   0  0  0  0  0  0  0  0  0  0  0  0
    6.3228    4.3906   -1.2275 C   0  0  0  0  0  0  0  0  0  0  0  0
    7.0860    3.1997   -1.1754 C   0  0  0  0  0  0  0  0  0  0  0  0
    5.0429    2.0128   -0.5067 C   0  0  0  0  0  0  0  0  0  0  0  0
    6.4123    2.0089   -0.8073 C   0  0  0  0  0  0  0  0  0  0  0  0
    8.5608    3.1669   -1.4938 C   0  0  0  0  0  0  0  0  0  0  0  0
    9.3056    4.3131   -1.8693 C   0  0  0  0  0  0  0  0  0  0  0  0
   10.6740    4.1970   -2.1489 C   0  0  0  0  0  0  0  0  0  0  0  0
   11.3023    2.9584   -2.0584 C   0  0  0  0  0  0  0  0  0  0  0  0
    9.2242    1.9730   -1.4192 N   0  0  0  0  0  0  0  0  0  0  0  0
   10.5519    1.8461   -1.6879 C   0  0  0  0  0  0  0  0  0  0  0  0
    4.3806    5.3020   -0.9686 H   0  0  0  0  0  0  0  0  0  0  0  0
    6.7633    5.3357   -1.4990 H   0  0  0  0  0  0  0  0  0  0  0  0
    3.2562    3.1991   -0.3328 H   0  0  0  0  0  0  0  0  0  0  0  0
    4.5393    1.0953   -0.2264 H   0  0  0  0  0  0  0  0  0  0  0  0
    8.8643    5.2950   -1.9537 H   0  0  0  0  0  0  0  0  0  0  0  0
   11.2552    5.0653   -2.4372 H   0  0  0  0  0  0  0  0  0  0  0  0
   11.0321    0.8792   -1.6149 H   0  0  0  0  0  0  0  0  0  0  0  0
   12.3599    2.8598   -2.2728 H   0  0  0  0  0  0  0  0  0  0  0  0
  1  5  1  0  0  0  0
  1 15  1  0  0  0  0
  2  1  2  0  0  0  0
  3  4  2  0  0  0  0
  3  2  1  0  0  0  0
  4  6  1  0  0  0  0
  5 16  1  0  0  0  0
  6  5  2  0  0  0  0
  7 11  1  0  0  0  0
  7  4  1  0  0  0  0
  8  7  2  0  0  0  0
  9 10  2  0  0  0  0
  9  8  1  0  0  0  0
 10 12  1  0  0  0  0
 12 19  1  0  0  0  0
 12 11  2  0  0  0  0
 13  2  1  0  0  0  0
 14  3  1  0  0  0  0
 17  8  1  0  0  0  0
 18  9  1  0  0  0  0
 20 10  1  0  0  0  0
M  CHG  1   6  -1
M  END
