
 OpenBabel05032121053D

 23 25  0  0  0  0  0  0  0  0999 V2000
   -5.4588    2.8142    0.0000 C   0  0  0  0  0  0  0  0  0  0  0  0
   -4.0637    2.7072   -0.0000 C   0  0  0  0  0  0  0  0  0  0  0  0
   -6.2504    1.6618    0.0000 C   0  0  0  0  0  0  0  0  0  0  0  0
   -5.6477    0.4007   -0.0000 C   0  0  0  0  0  0  0  0  0  0  0  0
   -4.2546    0.2923   -0.0000 C   0  0  0  0  0  0  0  0  0  0  0  0
   -3.4526    1.4420    0.0000 C   0  0  0  0  0  0  0  0  0  0  0  0
   -1.9854    1.3135   -0.0000 C   0  0  0  0  0  0  0  0  0  0  0  0
   -1.1562    2.3477    0.0000 O   0  0  0  0  0  0  0  0  0  0  0  0
    0.0493    1.8386    0.0000 C   0  0  0  0  0  0  0  0  0  0  0  0
   -1.3363    0.1201    0.0000 N   0  0  0  0  0  0  0  0  0  0  0  0
   -0.0444    0.4790   -0.0000 C   0  0  0  0  0  0  0  0  0  0  0  0
    1.2768    2.4952   -0.0000 C   0  0  0  0  0  0  0  0  0  0  0  0
    2.4392    1.6999    0.0000 C   0  0  0  0  0  0  0  0  0  0  0  0
    2.3420    0.2884   -0.0000 C   0  0  0  0  0  0  0  0  0  0  0  0
    1.0815   -0.3401    0.0000 C   0  0  0  0  0  0  0  0  0  0  0  0
    1.3353    3.5757    0.0000 H   0  0  0  0  0  0  0  0  0  0  0  0
    3.4130    2.1720   -0.0000 H   0  0  0  0  0  0  0  0  0  0  0  0
    0.9924   -1.4186   -0.0000 H   0  0  0  0  0  0  0  0  0  0  0  0
    3.2419   -0.3126    0.0000 H   0  0  0  0  0  0  0  0  0  0  0  0
   -3.4653    3.6098    0.0000 H   0  0  0  0  0  0  0  0  0  0  0  0
   -5.9261    3.7906    0.0000 H   0  0  0  0  0  0  0  0  0  0  0  0
   -7.3294    1.7461   -0.0000 H   0  0  0  0  0  0  0  0  0  0  0  0
   -6.2567   -0.4933    0.0000 H   0  0  0  0  0  0  0  0  0  0  0  0
  1  2  2  0  0  0  0
  1  3  1  0  0  0  0
  1 21  1  0  0  0  0
  2  6  1  0  0  0  0
  2 20  1  0  0  0  0
  3  4  2  0  0  0  0
  3 22  1  0  0  0  0
  4  5  1  0  0  0  0
  4 23  1  0  0  0  0
  5  6  2  0  0  0  0
  6  7  1  0  0  0  0
  7  8  1  0  0  0  0
  7 10  2  0  0  0  0
  8  9  1  0  0  0  0
  9 11  2  0  0  0  0
  9 12  1  0  0  0  0
 10 11  1  0  0  0  0
 11 15  1  0  0  0  0
 12 13  2  0  0  0  0
 12 16  1  0  0  0  0
 13 14  1  0  0  0  0
 13 17  1  0  0  0  0
 14 15  2  0  0  0  0
 14 19  1  0  0  0  0
 15 18  1  0  0  0  0
M  CHG  1   5  -1
M  END
