
 OpenBabel05032121093D

 29 32  0  0  0  0  0  0  0  0999 V2000
   -5.7318    3.0723    0.0815 C   0  0  0  0  0  0  0  0  0  0  0  0
   -4.3354    2.9288    0.1086 C   0  0  0  0  0  0  0  0  0  0  0  0
   -6.5521    1.9299   -0.0887 C   0  0  0  0  0  0  0  0  0  0  0  0
   -5.9603    0.6665   -0.2285 C   0  0  0  0  0  0  0  0  0  0  0  0
   -4.5706    0.5373   -0.1998 C   0  0  0  0  0  0  0  0  0  0  0  0
   -3.7507    1.6599   -0.0321 C   0  0  0  0  0  0  0  0  0  0  0  0
   -2.2867    1.4983   -0.0052 C   0  0  0  0  0  0  0  0  0  0  0  0
   -1.4378    2.5048    0.1485 O   0  0  0  0  0  0  0  0  0  0  0  0
   -0.2431    1.9717    0.1200 C   0  0  0  0  0  0  0  0  0  0  0  0
   -1.6612    0.2994   -0.1357 N   0  0  0  0  0  0  0  0  0  0  0  0
   -0.3632    0.6253   -0.0530 C   0  0  0  0  0  0  0  0  0  0  0  0
    0.9963    2.5944    0.2380 C   0  0  0  0  0  0  0  0  0  0  0  0
    2.1424    1.7785    0.1724 C   0  0  0  0  0  0  0  0  0  0  0  0
    2.0178    0.3806   -0.0072 C   0  0  0  0  0  0  0  0  0  0  0  0
    0.7460   -0.2134   -0.1227 C   0  0  0  0  0  0  0  0  0  0  0  0
    1.0758    3.6648    0.3750 H   0  0  0  0  0  0  0  0  0  0  0  0
    3.1248    2.2240    0.2599 H   0  0  0  0  0  0  0  0  0  0  0  0
    0.6359   -1.2812   -0.2604 H   0  0  0  0  0  0  0  0  0  0  0  0
    2.9054   -0.2366   -0.0562 H   0  0  0  0  0  0  0  0  0  0  0  0
   -7.9479    2.0743   -0.1157 C   0  0  0  0  0  0  0  0  0  0  0  0
   -8.5249    3.3397    0.0248 C   0  0  0  0  0  0  0  0  0  0  0  0
   -7.7163    4.4670    0.1928 C   0  0  0  0  0  0  0  0  0  0  0  0
   -6.3247    4.3371    0.2215 C   0  0  0  0  0  0  0  0  0  0  0  0
   -8.1692    5.4440    0.3011 H   0  0  0  0  0  0  0  0  0  0  0  0
   -5.7141    5.2225    0.3527 H   0  0  0  0  0  0  0  0  0  0  0  0
   -8.5905    1.2115   -0.2451 H   0  0  0  0  0  0  0  0  0  0  0  0
   -9.6018    3.4470    0.0035 H   0  0  0  0  0  0  0  0  0  0  0  0
   -6.5676   -0.2203   -0.3597 H   0  0  0  0  0  0  0  0  0  0  0  0
   -3.7062    3.8020    0.2388 H   0  0  0  0  0  0  0  0  0  0  0  0
  1  2  1  0  0  0  0
  1 23  1  0  0  0  0
  2 29  1  0  0  0  0
  3  1  2  0  0  0  0
  4  5  2  0  0  0  0
  4  3  1  0  0  0  0
  5  6  1  0  0  0  0
  6  7  1  0  0  0  0
  6  2  2  0  0  0  0
  7  8  1  0  0  0  0
  9  8  1  0  0  0  0
  9 12  2  0  0  0  0
 10 11  1  0  0  0  0
 10  7  2  0  0  0  0
 11  9  1  0  0  0  0
 12 16  1  0  0  0  0
 13 12  1  0  0  0  0
 13 17  1  0  0  0  0
 14 13  2  0  0  0  0
 15 11  2  0  0  0  0
 15 14  1  0  0  0  0
 18 15  1  0  0  0  0
 19 14  1  0  0  0  0
 20  3  1  0  0  0  0
 20 21  2  0  0  0  0
 21 22  1  0  0  0  0
 22 23  2  0  0  0  0
 22 24  1  0  0  0  0
 23 25  1  0  0  0  0
 26 20  1  0  0  0  0
 27 21  1  0  0  0  0
 28  4  1  0  0  0  0
M  CHG  1   5  -1
M  END
