
 OpenBabel05032121053D

 23 25  0  0  0  0  0  0  0  0999 V2000
   -5.6878    2.7185   -0.0000 C   0  0  0  0  0  0  0  0  0  0  0  0
   -4.2890    2.7538    0.0000 C   0  0  0  0  0  0  0  0  0  0  0  0
   -6.3589    1.4926   -0.0000 C   0  0  0  0  0  0  0  0  0  0  0  0
   -5.6320    0.2995   -0.0000 C   0  0  0  0  0  0  0  0  0  0  0  0
   -4.2354    0.3329    0.0000 C   0  0  0  0  0  0  0  0  0  0  0  0
   -3.5497    1.5563    0.0000 C   0  0  0  0  0  0  0  0  0  0  0  0
   -2.0727    1.5575   -0.0000 C   0  0  0  0  0  0  0  0  0  0  0  0
   -1.0882    2.9436    0.0000 S   0  0  0  0  0  0  0  0  0  0  0  0
    0.3217    2.0351   -0.0000 C   0  0  0  0  0  0  0  0  0  0  0  0
   -1.3346    0.4178   -0.0000 N   0  0  0  0  0  0  0  0  0  0  0  0
   -0.0049    0.6890   -0.0000 C   0  0  0  0  0  0  0  0  0  0  0  0
    1.6429    2.4757   -0.0000 C   0  0  0  0  0  0  0  0  0  0  0  0
    2.6616    1.5096    0.0000 C   0  0  0  0  0  0  0  0  0  0  0  0
    2.3414    0.1373    0.0000 C   0  0  0  0  0  0  0  0  0  0  0  0
    0.9993   -0.2808    0.0000 C   0  0  0  0  0  0  0  0  0  0  0  0
    1.8787    3.5320   -0.0000 H   0  0  0  0  0  0  0  0  0  0  0  0
    3.6982    1.8208    0.0000 H   0  0  0  0  0  0  0  0  0  0  0  0
    0.7518   -1.3347   -0.0000 H   0  0  0  0  0  0  0  0  0  0  0  0
    3.1338   -0.5998   -0.0000 H   0  0  0  0  0  0  0  0  0  0  0  0
   -3.7928    3.7154   -0.0000 H   0  0  0  0  0  0  0  0  0  0  0  0
   -6.2516    3.6425    0.0000 H   0  0  0  0  0  0  0  0  0  0  0  0
   -7.4409    1.4675    0.0000 H   0  0  0  0  0  0  0  0  0  0  0  0
   -6.1473   -0.6516    0.0000 H   0  0  0  0  0  0  0  0  0  0  0  0
  1  2  2  0  0  0  0
  1  3  1  0  0  0  0
  1 21  1  0  0  0  0
  2  6  1  0  0  0  0
  2 20  1  0  0  0  0
  3  4  2  0  0  0  0
  3 22  1  0  0  0  0
  4  5  1  0  0  0  0
  4 23  1  0  0  0  0
  5  6  2  0  0  0  0
  6  7  1  0  0  0  0
  7  8  1  0  0  0  0
  7 10  2  0  0  0  0
  8  9  1  0  0  0  0
  9 11  2  0  0  0  0
  9 12  1  0  0  0  0
 10 11  1  0  0  0  0
 11 15  1  0  0  0  0
 12 13  2  0  0  0  0
 12 16  1  0  0  0  0
 13 14  1  0  0  0  0
 13 17  1  0  0  0  0
 14 15  2  0  0  0  0
 14 19  1  0  0  0  0
 15 18  1  0  0  0  0
M  CHG  1   5  -1
M  END
