@<TRIPOS>MOLECULE
correct_complexes/LEZJAD/eq_lig_2
48	52	1
SMALL
PartialCharges
****
Generated from molSimplify

@<TRIPOS>ATOM
1 C1	2.4357  5.9572  21.7647 C.ar	1 RES1 0.0
2 C2	-0.8155  5.6549  23.4109 C.ar	1 RES1 0.0
3 C3	0.348  6.2577  22.7602 C.ar	1 RES1 0.0
4 C4	-2.7384  4.4701  24.9053 C.ar	1 RES1 0.0
5 H1	-3.3692  4.0665  25.5089 H	1 RES1 0.0
6 C5	-1.8452  3.7155  24.1919 C.ar	1 RES1 0.0
7 C6	-1.7278  6.4873  24.0919 C.ar	1 RES1 0.0
8 C7	0.4584  7.6614  22.7244 C.ar	1 RES1 0.0
9 C8	-2.7438  5.8644  24.8502 C.ar	1 RES1 0.0
10 C9	2.591  7.3182  21.6781 C.ar	1 RES1 0.0
11 H2	3.4572  7.701  21.3551 H	1 RES1 0.0
12 C10	-1.6556  7.9073  24.0002 C.ar	1 RES1 0.0
13 C11	-0.5535  8.5108  23.2591 C.ar	1 RES1 0.0
14 C12	1.5889  8.2083  22.0889 C.ar	1 RES1 0.0
15 C13	-1.8573  2.2147  24.3224 C.3	1 RES1 0.0
16 H3	-1.1781  1.8768  23.7874 H	1 RES1 0.0
17 C14	-1.5782  1.783  25.7709 C.3	1 RES1 0.0
18 H4	-2.302  2.0705  26.3416 H	1 RES1 0.0
19 H5	-0.7375  2.1301  26.1182 H	1 RES1 0.0
20 H6	-1.4829  0.7895  25.7907 H	1 RES1 0.0
21 C15	-2.6343  8.6394  24.6525 C.ar	1 RES1 0.0
22 H7	-2.586  9.5033  24.5771 H	1 RES1 0.0
23 C16	-0.4202  9.8772  23.0496 C.ar	1 RES1 0.0
24 H8	-1.1209  10.4417  23.3584 H	1 RES1 0.0
25 C17	0.6878  10.4  22.4035 C.ar	1 RES1 0.0
26 H9	0.865  11.3206  22.3631 H	1 RES1 0.0
27 C18	-3.695  6.6672  25.5251 C.ar	1 RES1 0.0
28 H10	-4.2902  6.2561  26.0014 H	1 RES1 0.0
29 C19	1.6956  9.6091  21.9495 C.ar	1 RES1 0.0
30 H11	2.5198  9.9204  21.5506 H	1 RES1 0.0
31 C20	-3.6357  8.0212  25.3931 C.ar	1 RES1 0.0
32 H12	-4.267  8.5351  25.8059 H	1 RES1 0.0
33 C21	-3.1849  1.643  23.8271 C.3	1 RES1 0.0
34 H13	-3.1198  0.6554  23.8027 H	1 RES1 0.0
35 H14	-3.3955  1.9364  22.9242 H	1 RES1 0.0
36 H15	-3.888  1.9662  24.3892 H	1 RES1 0.0
37 N1	1.2528  5.4246  22.2275 N.ar	1 RES1 0.0
38 N2	-0.9005  4.3142  23.3924 N.ar	1 RES1 0.0
39 C22	3.5531  5.0168  21.4087 C.3	1 RES1 0.0
40 H16	3.2622  4.2154  21.3424 H	1 RES1 0.0
41 C23	4.719  5.1002  22.3859 C.3	1 RES1 0.0
42 H17	5.4068  4.4865  22.1168 H	1 RES1 0.0
43 H18	4.4141  4.8738  23.2695 H	1 RES1 0.0
44 H19	5.0713  5.9925  22.3885 H	1 RES1 0.0
45 C24	4.036  5.2015  19.9714 C.3	1 RES1 0.0
46 H20	4.7473  4.5819  19.7886 H	1 RES1 0.0
47 H21	4.3551  6.0997  19.8521 H	1 RES1 0.0
48 H22	3.3088  5.0391  19.3646 H	1 RES1 0.0
@<TRIPOS>BOND
1 1 10 ar
1 1 37 ar
1 1 39 1
1 2 3 ar
1 2 7 ar
1 2 38 ar
1 3 8 ar
1 3 37 ar
1 4 5 1
1 4 6 ar
1 4 9 ar
1 6 15 1
1 6 38 ar
1 7 9 ar
1 7 12 ar
1 8 13 ar
1 8 14 ar
1 9 27 ar
1 10 11 1
1 10 14 ar
1 12 13 ar
1 12 21 ar
1 13 23 ar
1 14 29 ar
1 15 16 1
1 15 17 1
1 15 33 1
1 17 18 1
1 17 19 1
1 17 20 1
1 21 22 1
1 21 31 ar
1 23 24 1
1 23 25 ar
1 25 26 1
1 25 29 ar
1 27 28 1
1 27 31 ar
1 29 30 1
1 31 32 1
1 33 34 1
1 33 35 1
1 33 36 1
1 39 40 1
1 39 41 1
1 39 45 1
1 41 42 1
1 41 43 1
1 41 44 1
1 45 46 1
1 45 47 1
1 45 48 1
@<TRIPOS>SUBSTRUCTURE
1 RES1 48

