
 OpenBabel05032121103D

 26 27  0  0  0  0  0  0  0  0999 V2000
   -0.3659    0.0000    2.4642 C   0  0  0  0  0  0  0  0  0  0  0  0
    0.2079   -0.0000    3.7411 C   0  0  0  0  0  0  0  0  0  0  0  0
    1.6029   -0.0000    3.8697 C   0  0  0  0  0  0  0  0  0  0  0  0
    2.4158   -0.0001    2.7177 C   0  0  0  0  0  0  0  0  0  0  0  0
    0.4632   -0.0000    1.3433 C   0  0  0  0  0  0  0  0  0  0  0  0
    1.8139   -0.0001    1.4943 N   0  0  0  0  0  0  0  0  0  0  0  0
    3.9036   -0.0001    2.7712 C   0  0  0  0  0  0  0  0  0  0  0  0
    4.6331   -0.0001    3.9783 C   0  0  0  0  0  0  0  0  0  0  0  0
    6.0353   -0.0002    3.9476 C   0  0  0  0  0  0  0  0  0  0  0  0
    6.6954   -0.0002    2.7141 C   0  0  0  0  0  0  0  0  0  0  0  0
    4.5900   -0.0001    1.5932 N   0  0  0  0  0  0  0  0  0  0  0  0
    5.9475   -0.0002    1.5377 C   0  0  0  0  0  0  0  0  0  0  0  0
   -1.4411    0.0000    2.3349 H   0  0  0  0  0  0  0  0  0  0  0  0
    0.0329   -0.0000    0.3506 H   0  0  0  0  0  0  0  0  0  0  0  0
   -0.6471    0.0000    4.9735 C   0  0  0  0  0  0  0  0  0  0  0  0
    2.0197   -0.0001    4.8646 H   0  0  0  0  0  0  0  0  0  0  0  0
    4.1424   -0.0001    4.9384 H   0  0  0  0  0  0  0  0  0  0  0  0
    6.8305   -0.0002    5.2208 C   0  0  0  0  0  0  0  0  0  0  0  0
    6.4464   -0.0002    0.5776 H   0  0  0  0  0  0  0  0  0  0  0  0
    7.7774   -0.0002    2.6646 H   0  0  0  0  0  0  0  0  0  0  0  0
   -1.7291    0.0001    4.7237 H   0  0  0  0  0  0  0  0  0  0  0  0
   -0.4247    0.9044    5.5785 H   0  0  0  0  0  0  0  0  0  0  0  0
   -0.4247   -0.9044    5.5785 H   0  0  0  0  0  0  0  0  0  0  0  0
    6.1708   -0.0002    6.1145 H   0  0  0  0  0  0  0  0  0  0  0  0
    7.4721    0.9050    5.2613 H   0  0  0  0  0  0  0  0  0  0  0  0
    7.4720   -0.9054    5.2613 H   0  0  0  0  0  0  0  0  0  0  0  0
  1  2  2  0  0  0  0
  2  3  1  0  0  0  0
  2 15  1  0  0  0  0
  3 16  1  0  0  0  0
  4  7  1  0  0  0  0
  4  3  2  0  0  0  0
  5  6  2  0  0  0  0
  5  1  1  0  0  0  0
  6  4  1  0  0  0  0
  7  8  2  0  0  0  0
  8 17  1  0  0  0  0
  9  8  1  0  0  0  0
  9 18  1  0  0  0  0
 10  9  2  0  0  0  0
 11  7  1  0  0  0  0
 12 11  2  0  0  0  0
 12 10  1  0  0  0  0
 13  1  1  0  0  0  0
 14  5  1  0  0  0  0
 15 22  1  0  0  0  0
 15 23  1  0  0  0  0
 18 25  1  0  0  0  0
 18 26  1  0  0  0  0
 18 24  1  0  0  0  0
 19 12  1  0  0  0  0
 20 10  1  0  0  0  0
 21 15  1  0  0  0  0
M  END
