
 OpenBabel05032121113D

 34 36  0  0  0  0  0  0  0  0999 V2000
   -0.3185    0.0000    2.6363 C   0  0  0  0  0  0  0  0  0  0  0  0
    0.3072   -0.0000    3.9102 C   0  0  0  0  0  0  0  0  0  0  0  0
    1.7260   -0.0001    3.9776 C   0  0  0  0  0  0  0  0  0  0  0  0
    2.4740   -0.0001    2.7769 C   0  0  0  0  0  0  0  0  0  0  0  0
    0.4804   -0.0000    1.4845 C   0  0  0  0  0  0  0  0  0  0  0  0
    1.8312   -0.0001    1.5807 N   0  0  0  0  0  0  0  0  0  0  0  0
    3.8792   -0.0001    2.8123 C   0  0  0  0  0  0  0  0  0  0  0  0
    4.5660   -0.0001    4.0489 C   0  0  0  0  0  0  0  0  0  0  0  0
    5.9864   -0.0002    4.0529 C   0  0  0  0  0  0  0  0  0  0  0  0
    6.6754   -0.0002    2.8120 C   0  0  0  0  0  0  0  0  0  0  0  0
    4.5813   -0.0001    1.6497 N   0  0  0  0  0  0  0  0  0  0  0  0
    5.9352   -0.0002    1.6216 C   0  0  0  0  0  0  0  0  0  0  0  0
   -1.8166    0.0001    2.4758 C   0  0  0  0  0  0  0  0  0  0  0  0
    0.0296   -0.0000    0.5002 H   0  0  0  0  0  0  0  0  0  0  0  0
   -0.5096    0.0000    5.1874 C   0  0  0  0  0  0  0  0  0  0  0  0
    2.4195   -0.0001    5.2030 C   0  0  0  0  0  0  0  0  0  0  0  0
    3.8118   -0.0001    5.2381 C   0  0  0  0  0  0  0  0  0  0  0  0
    6.7381   -0.0002    5.3695 C   0  0  0  0  0  0  0  0  0  0  0  0
    6.4349   -0.0002    0.6611 H   0  0  0  0  0  0  0  0  0  0  0  0
    8.1795   -0.0002    2.7269 C   0  0  0  0  0  0  0  0  0  0  0  0
    1.9000   -0.0001    6.1511 H   0  0  0  0  0  0  0  0  0  0  0  0
    4.2831   -0.0001    6.2109 H   0  0  0  0  0  0  0  0  0  0  0  0
    8.5360   -0.0002    1.6750 H   0  0  0  0  0  0  0  0  0  0  0  0
    8.5838   -0.9085    3.2214 H   0  0  0  0  0  0  0  0  0  0  0  0
    8.5838    0.9080    3.2214 H   0  0  0  0  0  0  0  0  0  0  0  0
    7.8386   -0.0002    5.2628 H   0  0  0  0  0  0  0  0  0  0  0  0
    6.4672   -0.9064    5.9513 H   0  0  0  0  0  0  0  0  0  0  0  0
    6.4672    0.9061    5.9513 H   0  0  0  0  0  0  0  0  0  0  0  0
   -1.6034    0.0001    5.0256 H   0  0  0  0  0  0  0  0  0  0  0  0
   -0.2683    0.9063    5.7821 H   0  0  0  0  0  0  0  0  0  0  0  0
   -0.2683   -0.9062    5.7821 H   0  0  0  0  0  0  0  0  0  0  0  0
   -2.1198    0.0001    1.4073 H   0  0  0  0  0  0  0  0  0  0  0  0
   -2.2451    0.9083    2.9493 H   0  0  0  0  0  0  0  0  0  0  0  0
   -2.2452   -0.9082    2.9493 H   0  0  0  0  0  0  0  0  0  0  0  0
  1  2  2  0  0  0  0
  2  3  1  0  0  0  0
  2 15  1  0  0  0  0
  3 16  2  0  0  0  0
  4  7  2  0  0  0  0
  4  3  1  0  0  0  0
  5  6  2  0  0  0  0
  5  1  1  0  0  0  0
  6  4  1  0  0  0  0
  7  8  1  0  0  0  0
  8  9  1  0  0  0  0
  8 17  2  0  0  0  0
  9 18  1  0  0  0  0
 10  9  2  0  0  0  0
 11  7  1  0  0  0  0
 12 11  2  0  0  0  0
 12 10  1  0  0  0  0
 13  1  1  0  0  0  0
 13 34  1  0  0  0  0
 13 33  1  0  0  0  0
 14  5  1  0  0  0  0
 15 31  1  0  0  0  0
 15 30  1  0  0  0  0
 16 17  1  0  0  0  0
 16 21  1  0  0  0  0
 17 22  1  0  0  0  0
 18 28  1  0  0  0  0
 18 27  1  0  0  0  0
 19 12  1  0  0  0  0
 20 10  1  0  0  0  0
 20 25  1  0  0  0  0
 20 24  1  0  0  0  0
 23 20  1  0  0  0  0
 26 18  1  0  0  0  0
 29 15  1  0  0  0  0
 32 13  1  0  0  0  0
M  END
