
 OpenBabel05032121113D

 42 46  0  0  0  0  0  0  0  0999 V2000
   -0.9446   -0.2164    3.7197 C   0  0  0  0  0  0  0  0  0  0  0  0
   -0.3882   -0.0723    5.0078 C   0  0  0  0  0  0  0  0  0  0  0  0
    1.8222   -0.2393    3.9505 C   0  0  0  0  0  0  0  0  0  0  0  0
   -0.1298   -0.3766    2.6059 C   0  0  0  0  0  0  0  0  0  0  0  0
    1.2147   -0.3926    2.7444 N   0  0  0  0  0  0  0  0  0  0  0  0
    3.2272   -0.2394    4.0109 C   0  0  0  0  0  0  0  0  0  0  0  0
    3.9052   -0.0631    5.2459 C   0  0  0  0  0  0  0  0  0  0  0  0
    5.3387   -0.0724    5.2540 C   0  0  0  0  0  0  0  0  0  0  0  0
    6.0035   -0.2166    4.0184 C   0  0  0  0  0  0  0  0  0  0  0  0
    3.9359   -0.3927    2.8614 N   0  0  0  0  0  0  0  0  0  0  0  0
    5.2874   -0.3767    2.8388 C   0  0  0  0  0  0  0  0  0  0  0  0
    1.7254    0.1679    6.3319 C   0  0  0  0  0  0  0  0  0  0  0  0
    3.1192    0.1679    6.3918 C   0  0  0  0  0  0  0  0  0  0  0  0
   -2.0153   -0.2374    3.5653 H   0  0  0  0  0  0  0  0  0  0  0  0
   -0.5694   -0.5013    1.6252 H   0  0  0  0  0  0  0  0  0  0  0  0
    3.5500    0.3858    7.3530 H   0  0  0  0  0  0  0  0  0  0  0  0
    1.0407   -0.0630    5.1228 C   0  0  0  0  0  0  0  0  0  0  0  0
   -1.3468    0.0392    6.1632 C   0  0  0  0  0  0  0  0  0  0  0  0
    1.2137    0.3859    7.2526 H   0  0  0  0  0  0  0  0  0  0  0  0
    6.1945    0.0390    6.4874 C   0  0  0  0  0  0  0  0  0  0  0  0
    7.0835   -0.2377    3.9565 H   0  0  0  0  0  0  0  0  0  0  0  0
    5.8095   -0.5014    1.8995 H   0  0  0  0  0  0  0  0  0  0  0  0
   -2.5649    0.7401    6.0117 C   0  0  0  0  0  0  0  0  0  0  0  0
   -3.4747    0.8385    7.0684 C   0  0  0  0  0  0  0  0  0  0  0  0
   -3.1970    0.2292    8.2911 C   0  0  0  0  0  0  0  0  0  0  0  0
   -2.0116   -0.4856    8.4573 C   0  0  0  0  0  0  0  0  0  0  0  0
   -1.0960   -0.5845    7.4054 C   0  0  0  0  0  0  0  0  0  0  0  0
    5.8380   -0.5846    7.7036 C   0  0  0  0  0  0  0  0  0  0  0  0
    7.4212    0.7399    6.4411 C   0  0  0  0  0  0  0  0  0  0  0  0
    8.2369    0.8382    7.5720 C   0  0  0  0  0  0  0  0  0  0  0  0
    6.6600   -0.4858    8.8302 C   0  0  0  0  0  0  0  0  0  0  0  0
    7.8553    0.2289    8.7664 C   0  0  0  0  0  0  0  0  0  0  0  0
    4.9409   -1.1805    7.7898 H   0  0  0  0  0  0  0  0  0  0  0  0
    6.3722   -0.9728    9.7531 H   0  0  0  0  0  0  0  0  0  0  0  0
    8.4900    0.3032    9.6399 H   0  0  0  0  0  0  0  0  0  0  0  0
    9.1678    1.3882    7.5206 H   0  0  0  0  0  0  0  0  0  0  0  0
    7.7489    1.2327    5.5354 H   0  0  0  0  0  0  0  0  0  0  0  0
   -3.9044    0.3035    9.1070 H   0  0  0  0  0  0  0  0  0  0  0  0
   -1.8042   -0.9726    9.4015 H   0  0  0  0  0  0  0  0  0  0  0  0
   -2.8136    1.2330    5.0812 H   0  0  0  0  0  0  0  0  0  0  0  0
   -4.3977    1.3885    6.9373 H   0  0  0  0  0  0  0  0  0  0  0  0
   -0.2096   -1.1804    7.5683 H   0  0  0  0  0  0  0  0  0  0  0  0
  1  2  2  0  0  0  0
  2 17  1  0  0  0  0
  2 18  1  0  0  0  0
  3  6  2  0  0  0  0
  3 17  1  0  0  0  0
  4  5  2  0  0  0  0
  4  1  1  0  0  0  0
  5  3  1  0  0  0  0
  6  7  1  0  0  0  0
  7  8  1  0  0  0  0
  7 13  2  0  0  0  0
  8 20  1  0  0  0  0
  9  8  2  0  0  0  0
 10  6  1  0  0  0  0
 11 10  2  0  0  0  0
 11  9  1  0  0  0  0
 12 13  1  0  0  0  0
 12 19  1  0  0  0  0
 13 16  1  0  0  0  0
 14  1  1  0  0  0  0
 15  4  1  0  0  0  0
 17 12  2  0  0  0  0
 18 27  1  0  0  0  0
 20 28  1  0  0  0  0
 21  9  1  0  0  0  0
 22 11  1  0  0  0  0
 23 18  2  0  0  0  0
 23 24  1  0  0  0  0
 24 25  2  0  0  0  0
 25 26  1  0  0  0  0
 25 38  1  0  0  0  0
 26 39  1  0  0  0  0
 27 42  1  0  0  0  0
 27 26  2  0  0  0  0
 28 33  1  0  0  0  0
 28 31  2  0  0  0  0
 29 20  2  0  0  0  0
 29 30  1  0  0  0  0
 30 32  2  0  0  0  0
 31 34  1  0  0  0  0
 32 31  1  0  0  0  0
 32 35  1  0  0  0  0
 36 30  1  0  0  0  0
 37 29  1  0  0  0  0
 40 23  1  0  0  0  0
 41 24  1  0  0  0  0
M  END
