
 OpenBabel05032121103D

 26 27  0  0  0  0  0  0  0  0999 V2000
   -0.3777    0.0000    2.4621 C   0  0  0  0  0  0  0  0  0  0  0  0
    0.1954   -0.0000    3.7385 C   0  0  0  0  0  0  0  0  0  0  0  0
    1.5843   -0.0000    3.8864 C   0  0  0  0  0  0  0  0  0  0  0  0
    2.4049   -0.0001    2.7413 C   0  0  0  0  0  0  0  0  0  0  0  0
    0.4666   -0.0000    1.3464 C   0  0  0  0  0  0  0  0  0  0  0  0
    1.8140   -0.0001    1.5131 N   0  0  0  0  0  0  0  0  0  0  0  0
    3.8893   -0.0001    2.7971 C   0  0  0  0  0  0  0  0  0  0  0  0
    4.6215   -0.0001    4.0008 C   0  0  0  0  0  0  0  0  0  0  0  0
    6.0177   -0.0002    3.9577 C   0  0  0  0  0  0  0  0  0  0  0  0
    6.6851   -0.0002    2.7280 C   0  0  0  0  0  0  0  0  0  0  0  0
    4.5709   -0.0001    1.6169 N   0  0  0  0  0  0  0  0  0  0  0  0
    5.9271   -0.0002    1.5519 C   0  0  0  0  0  0  0  0  0  0  0  0
   -1.8682    0.0001    2.3041 C   0  0  0  0  0  0  0  0  0  0  0  0
    0.0592    0.0000    0.3438 H   0  0  0  0  0  0  0  0  0  0  0  0
    1.9874   -0.0001    4.8873 H   0  0  0  0  0  0  0  0  0  0  0  0
    4.1444   -0.0001    4.9685 H   0  0  0  0  0  0  0  0  0  0  0  0
    6.4086   -0.0002    0.5828 H   0  0  0  0  0  0  0  0  0  0  0  0
    8.1832   -0.0002    2.6824 C   0  0  0  0  0  0  0  0  0  0  0  0
    6.5796   -0.0002    4.8838 H   0  0  0  0  0  0  0  0  0  0  0  0
   -0.4345    0.0000    4.6198 H   0  0  0  0  0  0  0  0  0  0  0  0
   -2.1632    0.0001    1.2331 H   0  0  0  0  0  0  0  0  0  0  0  0
   -2.2936    0.9052    2.7861 H   0  0  0  0  0  0  0  0  0  0  0  0
   -2.2936   -0.9050    2.7861 H   0  0  0  0  0  0  0  0  0  0  0  0
    8.5579   -0.0002    1.6365 H   0  0  0  0  0  0  0  0  0  0  0  0
    8.5712   -0.9053    3.1950 H   0  0  0  0  0  0  0  0  0  0  0  0
    8.5712    0.9049    3.1950 H   0  0  0  0  0  0  0  0  0  0  0  0
  1  2  2  0  0  0  0
  2  3  1  0  0  0  0
  2 20  1  0  0  0  0
  3 15  1  0  0  0  0
  4  7  1  0  0  0  0
  4  3  2  0  0  0  0
  5  6  2  0  0  0  0
  5  1  1  0  0  0  0
  6  4  1  0  0  0  0
  7  8  2  0  0  0  0
  8 16  1  0  0  0  0
  9  8  1  0  0  0  0
  9 19  1  0  0  0  0
 10  9  2  0  0  0  0
 11  7  1  0  0  0  0
 12 11  2  0  0  0  0
 12 10  1  0  0  0  0
 13  1  1  0  0  0  0
 13 23  1  0  0  0  0
 13 22  1  0  0  0  0
 14  5  1  0  0  0  0
 17 12  1  0  0  0  0
 18 10  1  0  0  0  0
 18 26  1  0  0  0  0
 18 25  1  0  0  0  0
 21 13  1  0  0  0  0
 24 18  1  0  0  0  0
M  END
