
 OpenBabel05032121113D

 28 30  0  0  0  0  0  0  0  0999 V2000
   -0.3038    0.0000    2.6146 C   0  0  0  0  0  0  0  0  0  0  0  0
    0.3155   -0.0000    3.8735 C   0  0  0  0  0  0  0  0  0  0  0  0
    1.7304   -0.0000    3.9445 C   0  0  0  0  0  0  0  0  0  0  0  0
    2.4751   -0.0001    2.7391 C   0  0  0  0  0  0  0  0  0  0  0  0
    0.4720   -0.0000    1.4570 C   0  0  0  0  0  0  0  0  0  0  0  0
    1.8260   -0.0001    1.5427 N   0  0  0  0  0  0  0  0  0  0  0  0
    3.8801   -0.0001    2.7745 C   0  0  0  0  0  0  0  0  0  0  0  0
    4.5633   -0.0001    4.0156 C   0  0  0  0  0  0  0  0  0  0  0  0
    5.9800   -0.0002    4.0158 C   0  0  0  0  0  0  0  0  0  0  0  0
    6.6618   -0.0002    2.7895 C   0  0  0  0  0  0  0  0  0  0  0  0
    4.5884   -0.0001    1.6120 N   0  0  0  0  0  0  0  0  0  0  0  0
    5.9450   -0.0002    1.5945 C   0  0  0  0  0  0  0  0  0  0  0  0
   -1.3833    0.0000    2.5260 H   0  0  0  0  0  0  0  0  0  0  0  0
   -0.0047   -0.0000    0.4858 H   0  0  0  0  0  0  0  0  0  0  0  0
   -0.5436    0.0000    5.1120 C   0  0  0  0  0  0  0  0  0  0  0  0
    2.4195   -0.0001    5.1710 C   0  0  0  0  0  0  0  0  0  0  0  0
    3.8135   -0.0001    5.2061 C   0  0  0  0  0  0  0  0  0  0  0  0
    6.7759   -0.0002    5.2958 C   0  0  0  0  0  0  0  0  0  0  0  0
    6.4698   -0.0002    0.6484 H   0  0  0  0  0  0  0  0  0  0  0  0
    7.7443   -0.0002    2.7552 H   0  0  0  0  0  0  0  0  0  0  0  0
    1.8914   -0.0001    6.1149 H   0  0  0  0  0  0  0  0  0  0  0  0
    4.2936   -0.0001    6.1753 H   0  0  0  0  0  0  0  0  0  0  0  0
    7.8697   -0.0002    5.1037 H   0  0  0  0  0  0  0  0  0  0  0  0
    6.5324   -0.9068    5.8890 H   0  0  0  0  0  0  0  0  0  0  0  0
    6.5324    0.9064    5.8890 H   0  0  0  0  0  0  0  0  0  0  0  0
   -1.6264    0.0001    4.8652 H   0  0  0  0  0  0  0  0  0  0  0  0
   -0.3302    0.9066    5.7166 H   0  0  0  0  0  0  0  0  0  0  0  0
   -0.3303   -0.9066    5.7166 H   0  0  0  0  0  0  0  0  0  0  0  0
  1  2  2  0  0  0  0
  2  3  1  0  0  0  0
  2 15  1  0  0  0  0
  3 16  2  0  0  0  0
  4  7  2  0  0  0  0
  4  3  1  0  0  0  0
  5  6  2  0  0  0  0
  5  1  1  0  0  0  0
  6  4  1  0  0  0  0
  7  8  1  0  0  0  0
  8  9  1  0  0  0  0
  8 17  2  0  0  0  0
  9 18  1  0  0  0  0
 10  9  2  0  0  0  0
 11  7  1  0  0  0  0
 12 11  2  0  0  0  0
 12 10  1  0  0  0  0
 13  1  1  0  0  0  0
 14  5  1  0  0  0  0
 15 28  1  0  0  0  0
 15 27  1  0  0  0  0
 16 17  1  0  0  0  0
 16 21  1  0  0  0  0
 17 22  1  0  0  0  0
 18 25  1  0  0  0  0
 18 24  1  0  0  0  0
 19 12  1  0  0  0  0
 20 10  1  0  0  0  0
 23 18  1  0  0  0  0
 26 15  1  0  0  0  0
M  END
