
 OpenBabel05032121113D

 28 30  0  0  0  0  0  0  0  0999 V2000
   -0.3065    0.0000    2.8439 C   0  0  0  0  0  0  0  0  0  0  0  0
    0.3371   -0.0000    4.0839 C   0  0  0  0  0  0  0  0  0  0  0  0
    1.7369   -0.0001    4.1446 C   0  0  0  0  0  0  0  0  0  0  0  0
    2.4720   -0.0001    2.9380 C   0  0  0  0  0  0  0  0  0  0  0  0
    0.4569   -0.0000    1.6693 C   0  0  0  0  0  0  0  0  0  0  0  0
    1.8146   -0.0001    1.7462 N   0  0  0  0  0  0  0  0  0  0  0  0
    3.8732   -0.0001    2.9731 C   0  0  0  0  0  0  0  0  0  0  0  0
    4.5467   -0.0001    4.2153 C   0  0  0  0  0  0  0  0  0  0  0  0
    5.9479   -0.0002    4.2248 C   0  0  0  0  0  0  0  0  0  0  0  0
    6.6529   -0.0002    3.0188 C   0  0  0  0  0  0  0  0  0  0  0  0
    4.5896   -0.0001    1.8159 N   0  0  0  0  0  0  0  0  0  0  0  0
    5.9495   -0.0002    1.8072 C   0  0  0  0  0  0  0  0  0  0  0  0
   -1.3886    0.0000    2.7982 H   0  0  0  0  0  0  0  0  0  0  0  0
   -0.2084    0.0000    0.3304 C   0  0  0  0  0  0  0  0  0  0  0  0
   -0.2565    0.0000    4.9904 H   0  0  0  0  0  0  0  0  0  0  0  0
    2.4122   -0.0001    5.3745 C   0  0  0  0  0  0  0  0  0  0  0  0
    3.8106   -0.0001    5.4096 C   0  0  0  0  0  0  0  0  0  0  0  0
    6.4952   -0.0002    5.1599 H   0  0  0  0  0  0  0  0  0  0  0  0
    6.6811   -0.0002    0.5034 C   0  0  0  0  0  0  0  0  0  0  0  0
    7.7359   -0.0002    3.0273 H   0  0  0  0  0  0  0  0  0  0  0  0
    1.8597   -0.0001    6.3066 H   0  0  0  0  0  0  0  0  0  0  0  0
    4.3156   -0.0001    6.3683 H   0  0  0  0  0  0  0  0  0  0  0  0
    5.9644   -0.0002   -0.3456 H   0  0  0  0  0  0  0  0  0  0  0  0
    7.3187   -0.9060    0.4304 H   0  0  0  0  0  0  0  0  0  0  0  0
    7.3188    0.9056    0.4304 H   0  0  0  0  0  0  0  0  0  0  0  0
    0.5501   -0.0000   -0.4816 H   0  0  0  0  0  0  0  0  0  0  0  0
   -0.8415    0.9058    0.2254 H   0  0  0  0  0  0  0  0  0  0  0  0
   -0.8416   -0.9058    0.2254 H   0  0  0  0  0  0  0  0  0  0  0  0
  1  2  2  0  0  0  0
  2  3  1  0  0  0  0
  2 15  1  0  0  0  0
  3 16  2  0  0  0  0
  4  7  2  0  0  0  0
  4  3  1  0  0  0  0
  5  6  2  0  0  0  0
  5  1  1  0  0  0  0
  6  4  1  0  0  0  0
  7  8  1  0  0  0  0
  8  9  1  0  0  0  0
  8 17  2  0  0  0  0
  9 18  1  0  0  0  0
 10 20  1  0  0  0  0
 10  9  2  0  0  0  0
 11  7  1  0  0  0  0
 12 11  2  0  0  0  0
 12 10  1  0  0  0  0
 13  1  1  0  0  0  0
 14  5  1  0  0  0  0
 16 17  1  0  0  0  0
 16 21  1  0  0  0  0
 17 22  1  0  0  0  0
 19 12  1  0  0  0  0
 23 19  1  0  0  0  0
 24 19  1  0  0  0  0
 25 19  1  0  0  0  0
 26 14  1  0  0  0  0
 27 14  1  0  0  0  0
 28 14  1  0  0  0  0
M  END
