
 OpenBabel05032121123D

 20 21  0  0  0  0  0  0  0  0999 V2000
   -0.3744    0.0000    2.6127 C   0  0  0  0  0  0  0  0  0  0  0  0
    0.1990   -0.0000    3.8834 C   0  0  0  0  0  0  0  0  0  0  0  0
    1.5892   -0.0001    4.0252 C   0  0  0  0  0  0  0  0  0  0  0  0
    2.4048   -0.0001    2.8747 C   0  0  0  0  0  0  0  0  0  0  0  0
    0.4565   -0.0000    1.4926 C   0  0  0  0  0  0  0  0  0  0  0  0
    1.8065   -0.0001    1.6495 N   0  0  0  0  0  0  0  0  0  0  0  0
    3.8910   -0.0001    2.9259 C   0  0  0  0  0  0  0  0  0  0  0  0
    4.6262   -0.0001    4.1290 C   0  0  0  0  0  0  0  0  0  0  0  0
    6.0227   -0.0002    4.0829 C   0  0  0  0  0  0  0  0  0  0  0  0
    6.6818   -0.0002    2.8542 C   0  0  0  0  0  0  0  0  0  0  0  0
    4.5719   -0.0001    1.7439 N   0  0  0  0  0  0  0  0  0  0  0  0
    5.9293   -0.0002    1.6800 C   0  0  0  0  0  0  0  0  0  0  0  0
   -0.2892    0.0000   -0.2627 Br  0  0  0  0  0  0  0  0  0  0  0  0
    1.9962   -0.0001    5.0241 H   0  0  0  0  0  0  0  0  0  0  0  0
    4.1518   -0.0001    5.0979 H   0  0  0  0  0  0  0  0  0  0  0  0
    6.7934   -0.0002   -0.0203 Br  0  0  0  0  0  0  0  0  0  0  0  0
    6.5949   -0.0002    5.0017 H   0  0  0  0  0  0  0  0  0  0  0  0
   -0.4347    0.0000    4.7611 H   0  0  0  0  0  0  0  0  0  0  0  0
    7.7634   -0.0002    2.8155 H   0  0  0  0  0  0  0  0  0  0  0  0
   -1.4509    0.0000    2.5001 H   0  0  0  0  0  0  0  0  0  0  0  0
  1  2  2  0  0  0  0
  2  3  1  0  0  0  0
  2 18  1  0  0  0  0
  3 14  1  0  0  0  0
  4  7  1  0  0  0  0
  4  3  2  0  0  0  0
  5  6  2  0  0  0  0
  5  1  1  0  0  0  0
  6  4  1  0  0  0  0
  7  8  2  0  0  0  0
  8 15  1  0  0  0  0
  9  8  1  0  0  0  0
  9 17  1  0  0  0  0
 10  9  2  0  0  0  0
 11  7  1  0  0  0  0
 12 11  2  0  0  0  0
 12 10  1  0  0  0  0
 13  5  1  0  0  0  0
 16 12  1  0  0  0  0
 19 10  1  0  0  0  0
 20  1  1  0  0  0  0
M  END
