
 OpenBabel05032121103D

 26 27  0  0  0  0  0  0  0  0999 V2000
   -0.3686    0.0000    2.5662 C   0  0  0  0  0  0  0  0  0  0  0  0
    0.1942   -0.0000    3.8433 C   0  0  0  0  0  0  0  0  0  0  0  0
    1.5836   -0.0000    3.9989 C   0  0  0  0  0  0  0  0  0  0  0  0
    2.4070   -0.0001    2.8558 C   0  0  0  0  0  0  0  0  0  0  0  0
    0.4733   -0.0000    1.4501 C   0  0  0  0  0  0  0  0  0  0  0  0
    1.8201   -0.0001    1.6265 N   0  0  0  0  0  0  0  0  0  0  0  0
    3.8901   -0.0001    2.9067 C   0  0  0  0  0  0  0  0  0  0  0  0
    4.6335   -0.0001    4.1032 C   0  0  0  0  0  0  0  0  0  0  0  0
    6.0303   -0.0002    4.0431 C   0  0  0  0  0  0  0  0  0  0  0  0
    6.6791   -0.0002    2.8074 C   0  0  0  0  0  0  0  0  0  0  0  0
    4.5599   -0.0001    1.7202 N   0  0  0  0  0  0  0  0  0  0  0  0
    5.9154   -0.0002    1.6364 C   0  0  0  0  0  0  0  0  0  0  0  0
   -0.0884    0.0000    0.0649 C   0  0  0  0  0  0  0  0  0  0  0  0
    1.9863   -0.0001    5.0004 H   0  0  0  0  0  0  0  0  0  0  0  0
    4.1633   -0.0001    5.0750 H   0  0  0  0  0  0  0  0  0  0  0  0
    6.5707   -0.0002    0.2928 C   0  0  0  0  0  0  0  0  0  0  0  0
    6.6115   -0.0002    4.9564 H   0  0  0  0  0  0  0  0  0  0  0  0
   -0.4481    0.0000    4.7147 H   0  0  0  0  0  0  0  0  0  0  0  0
    5.8046   -0.0002   -0.5125 H   0  0  0  0  0  0  0  0  0  0  0  0
    7.2017   -0.9065    0.1820 H   0  0  0  0  0  0  0  0  0  0  0  0
    7.2017    0.9061    0.1820 H   0  0  0  0  0  0  0  0  0  0  0  0
    0.7310   -0.0000   -0.6861 H   0  0  0  0  0  0  0  0  0  0  0  0
   -0.7104    0.9063   -0.0889 H   0  0  0  0  0  0  0  0  0  0  0  0
   -0.7104   -0.9063   -0.0889 H   0  0  0  0  0  0  0  0  0  0  0  0
    7.7611   -0.0002    2.7622 H   0  0  0  0  0  0  0  0  0  0  0  0
   -1.4450    0.0000    2.4471 H   0  0  0  0  0  0  0  0  0  0  0  0
  1  2  2  0  0  0  0
  2  3  1  0  0  0  0
  2 18  1  0  0  0  0
  3 14  1  0  0  0  0
  4  7  1  0  0  0  0
  4  3  2  0  0  0  0
  5  6  2  0  0  0  0
  5  1  1  0  0  0  0
  6  4  1  0  0  0  0
  7  8  2  0  0  0  0
  8 15  1  0  0  0  0
  9  8  1  0  0  0  0
  9 17  1  0  0  0  0
 10  9  2  0  0  0  0
 11  7  1  0  0  0  0
 12 11  2  0  0  0  0
 12 10  1  0  0  0  0
 13  5  1  0  0  0  0
 16 12  1  0  0  0  0
 19 16  1  0  0  0  0
 20 16  1  0  0  0  0
 21 16  1  0  0  0  0
 22 13  1  0  0  0  0
 23 13  1  0  0  0  0
 24 13  1  0  0  0  0
 25 10  1  0  0  0  0
 26  1  1  0  0  0  0
M  END
