
 OpenBabel05032121123D

 40 41  0  0  0  0  0  0  0  0999 V2000
   -0.3053    0.0839    2.6596 C   0  0  0  0  0  0  0  0  0  0  0  0
    0.2841    0.0577    3.9370 C   0  0  0  0  0  0  0  0  0  0  0  0
    1.6704    0.0233    4.0903 C   0  0  0  0  0  0  0  0  0  0  0  0
    2.4960    0.0161    2.9531 C   0  0  0  0  0  0  0  0  0  0  0  0
    0.5636    0.0803    1.5481 C   0  0  0  0  0  0  0  0  0  0  0  0
    1.9101    0.0458    1.7251 N   0  0  0  0  0  0  0  0  0  0  0  0
    3.9819   -0.0199    3.0209 C   0  0  0  0  0  0  0  0  0  0  0  0
    4.7000   -0.0537    4.2283 C   0  0  0  0  0  0  0  0  0  0  0  0
    6.0945   -0.0860    4.2018 C   0  0  0  0  0  0  0  0  0  0  0  0
    6.7983   -0.0838    2.9834 C   0  0  0  0  0  0  0  0  0  0  0  0
    4.6777   -0.0223    1.8513 N   0  0  0  0  0  0  0  0  0  0  0  0
    6.0348   -0.0541    1.7975 C   0  0  0  0  0  0  0  0  0  0  0  0
   -1.8348    0.1252    2.5412 C   0  0  0  0  0  0  0  0  0  0  0  0
    0.1933    0.1024    0.5348 H   0  0  0  0  0  0  0  0  0  0  0  0
    2.0667    0.0043    5.0933 H   0  0  0  0  0  0  0  0  0  0  0  0
    4.2135   -0.0570    5.1910 H   0  0  0  0  0  0  0  0  0  0  0  0
    6.4963   -0.0537    0.8220 H   0  0  0  0  0  0  0  0  0  0  0  0
    8.3323   -0.1240    3.0045 C   0  0  0  0  0  0  0  0  0  0  0  0
    6.6269   -0.1175    5.1439 H   0  0  0  0  0  0  0  0  0  0  0  0
   -0.3323    0.0684    4.8269 H   0  0  0  0  0  0  0  0  0  0  0  0
    8.8618    1.1443    3.7111 C   0  0  0  0  0  0  0  0  0  0  0  0
    8.5418    2.0561    3.1617 H   0  0  0  0  0  0  0  0  0  0  0  0
    9.9722    1.1345    3.7532 H   0  0  0  0  0  0  0  0  0  0  0  0
    8.4904    1.2143    4.7543 H   0  0  0  0  0  0  0  0  0  0  0  0
    8.9551   -0.1948    1.5918 C   0  0  0  0  0  0  0  0  0  0  0  0
    8.6881    0.7018    0.9918 H   0  0  0  0  0  0  0  0  0  0  0  0
    8.6132   -1.1098    1.0623 H   0  0  0  0  0  0  0  0  0  0  0  0
   10.0637   -0.2385    1.6571 H   0  0  0  0  0  0  0  0  0  0  0  0
   -2.4253   -1.1583    3.1674 C   0  0  0  0  0  0  0  0  0  0  0  0
   -2.0555   -2.0578    2.6290 H   0  0  0  0  0  0  0  0  0  0  0  0
   -3.5350   -1.1483    3.1079 H   0  0  0  0  0  0  0  0  0  0  0  0
   -2.1510   -1.2523    4.2383 H   0  0  0  0  0  0  0  0  0  0  0  0
   -2.3258    0.2286    1.0794 C   0  0  0  0  0  0  0  0  0  0  0  0
   -2.0040   -0.6545    0.4862 H   0  0  0  0  0  0  0  0  0  0  0  0
   -1.9378    1.1550    0.6042 H   0  0  0  0  0  0  0  0  0  0  0  0
   -3.4357    0.2719    1.0439 H   0  0  0  0  0  0  0  0  0  0  0  0
    8.7173   -1.2720    3.7248 O   0  0  0  0  0  0  0  0  0  0  0  0
    9.7062   -1.2650    3.8200 H   0  0  0  0  0  0  0  0  0  0  0  0
   -2.2852    1.2570    3.2490 O   0  0  0  0  0  0  0  0  0  0  0  0
   -3.2787    1.2488    3.2532 H   0  0  0  0  0  0  0  0  0  0  0  0
  1  2  2  0  0  0  0
  2  3  1  0  0  0  0
  2 20  1  0  0  0  0
  3 15  1  0  0  0  0
  4  7  1  0  0  0  0
  4  3  2  0  0  0  0
  5  6  2  0  0  0  0
  5  1  1  0  0  0  0
  6  4  1  0  0  0  0
  7  8  2  0  0  0  0
  8 16  1  0  0  0  0
  9  8  1  0  0  0  0
  9 19  1  0  0  0  0
 10 18  1  0  0  0  0
 10  9  2  0  0  0  0
 11  7  1  0  0  0  0
 12 11  2  0  0  0  0
 12 10  1  0  0  0  0
 13  1  1  0  0  0  0
 13 29  1  0  0  0  0
 13 39  1  0  0  0  0
 14  5  1  0  0  0  0
 17 12  1  0  0  0  0
 18 21  1  0  0  0  0
 18 37  1  0  0  0  0
 21 23  1  0  0  0  0
 21 24  1  0  0  0  0
 22 21  1  0  0  0  0
 25 28  1  0  0  0  0
 25 18  1  0  0  0  0
 26 25  1  0  0  0  0
 27 25  1  0  0  0  0
 29 32  1  0  0  0  0
 30 29  1  0  0  0  0
 31 29  1  0  0  0  0
 33 13  1  0  0  0  0
 34 33  1  0  0  0  0
 35 33  1  0  0  0  0
 36 33  1  0  0  0  0
 37 38  1  0  0  0  0
 39 40  1  0  0  0  0
M  END
