
 OpenBabel05032121103D

 44 45  0  0  0  0  0  0  0  0999 V2000
   -0.3659   -0.0011    2.3320 C   0  0  0  0  0  0  0  0  0  0  0  0
    0.1697   -0.0004    3.6382 C   0  0  0  0  0  0  0  0  0  0  0  0
    1.5771   -0.0003    3.7689 C   0  0  0  0  0  0  0  0  0  0  0  0
    2.4084   -0.0009    2.6294 C   0  0  0  0  0  0  0  0  0  0  0  0
    0.4828   -0.0016    1.2277 C   0  0  0  0  0  0  0  0  0  0  0  0
    1.8271   -0.0015    1.3993 N   0  0  0  0  0  0  0  0  0  0  0  0
    3.8979   -0.0008    2.6931 C   0  0  0  0  0  0  0  0  0  0  0  0
    4.6288   -0.0003    3.9007 C   0  0  0  0  0  0  0  0  0  0  0  0
    6.0447   -0.0003    3.8863 C   0  0  0  0  0  0  0  0  0  0  0  0
    6.6845   -0.0007    2.6303 C   0  0  0  0  0  0  0  0  0  0  0  0
    4.5807   -0.0013    1.5160 N   0  0  0  0  0  0  0  0  0  0  0  0
    5.9344   -0.0012    1.4581 C   0  0  0  0  0  0  0  0  0  0  0  0
   -1.4284   -0.0012    2.1409 H   0  0  0  0  0  0  0  0  0  0  0  0
    0.0706   -0.0021    0.2274 H   0  0  0  0  0  0  0  0  0  0  0  0
   -0.7174    0.0002    4.9026 C   0  0  0  0  0  0  0  0  0  0  0  0
    2.0018    0.0001    4.7568 H   0  0  0  0  0  0  0  0  0  0  0  0
    4.1063    0.0000    4.8373 H   0  0  0  0  0  0  0  0  0  0  0  0
    6.8989    0.0003    5.1737 C   0  0  0  0  0  0  0  0  0  0  0  0
    6.4303   -0.0015    0.4966 H   0  0  0  0  0  0  0  0  0  0  0  0
    7.7627   -0.0007    2.5477 H   0  0  0  0  0  0  0  0  0  0  0  0
   -2.2308    0.0000    4.5780 C   0  0  0  0  0  0  0  0  0  0  0  0
   -0.4193    1.2623    5.7412 C   0  0  0  0  0  0  0  0  0  0  0  0
   -0.4193   -1.2611    5.7424 C   0  0  0  0  0  0  0  0  0  0  0  0
    6.0493    0.0007    6.4677 C   0  0  0  0  0  0  0  0  0  0  0  0
    7.7892    1.2617    5.1994 C   0  0  0  0  0  0  0  0  0  0  0  0
    7.7893   -1.2610    5.2003 C   0  0  0  0  0  0  0  0  0  0  0  0
    8.4749   -1.2988    4.3284 H   0  0  0  0  0  0  0  0  0  0  0  0
    7.1614   -2.1782    5.1883 H   0  0  0  0  0  0  0  0  0  0  0  0
    8.4177   -1.2806    6.1171 H   0  0  0  0  0  0  0  0  0  0  0  0
    5.4075    0.9067    6.5221 H   0  0  0  0  0  0  0  0  0  0  0  0
    6.7022    0.0010    7.3677 H   0  0  0  0  0  0  0  0  0  0  0  0
    5.4077   -0.9054    6.5227 H   0  0  0  0  0  0  0  0  0  0  0  0
    8.4747    1.2990    4.3274 H   0  0  0  0  0  0  0  0  0  0  0  0
    8.4176    1.2820    6.1162 H   0  0  0  0  0  0  0  0  0  0  0  0
    7.1611    2.1787    5.1867 H   0  0  0  0  0  0  0  0  0  0  0  0
   -0.6354   -2.1783    5.1530 H   0  0  0  0  0  0  0  0  0  0  0  0
   -1.0466   -1.2805    6.6600 H   0  0  0  0  0  0  0  0  0  0  0  0
    0.6413   -1.2997    6.0666 H   0  0  0  0  0  0  0  0  0  0  0  0
   -0.6355    2.1789    5.1508 H   0  0  0  0  0  0  0  0  0  0  0  0
    0.6413    1.3013    6.0653 H   0  0  0  0  0  0  0  0  0  0  0  0
   -1.0466    1.2826    6.6588 H   0  0  0  0  0  0  0  0  0  0  0  0
   -2.5130    0.9054    3.9983 H   0  0  0  0  0  0  0  0  0  0  0  0
   -2.8342    0.0005    5.5119 H   0  0  0  0  0  0  0  0  0  0  0  0
   -2.5130   -0.9060    3.9992 H   0  0  0  0  0  0  0  0  0  0  0  0
  1  2  2  0  0  0  0
  2  3  1  0  0  0  0
  2 15  1  0  0  0  0
  3 16  1  0  0  0  0
  4  7  1  0  0  0  0
  4  3  2  0  0  0  0
  5  6  2  0  0  0  0
  5  1  1  0  0  0  0
  6  4  1  0  0  0  0
  7  8  2  0  0  0  0
  8 17  1  0  0  0  0
  9  8  1  0  0  0  0
  9 18  1  0  0  0  0
 10  9  2  0  0  0  0
 11  7  1  0  0  0  0
 12 11  2  0  0  0  0
 12 10  1  0  0  0  0
 13  1  1  0  0  0  0
 14  5  1  0  0  0  0
 15 22  1  0  0  0  0
 15 23  1  0  0  0  0
 18 25  1  0  0  0  0
 18 26  1  0  0  0  0
 18 24  1  0  0  0  0
 19 12  1  0  0  0  0
 20 10  1  0  0  0  0
 21 15  1  0  0  0  0
 21 43  1  0  0  0  0
 22 40  1  0  0  0  0
 22 41  1  0  0  0  0
 23 38  1  0  0  0  0
 23 37  1  0  0  0  0
 24 30  1  0  0  0  0
 24 32  1  0  0  0  0
 24 31  1  0  0  0  0
 25 34  1  0  0  0  0
 26 29  1  0  0  0  0
 27 26  1  0  0  0  0
 28 26  1  0  0  0  0
 33 25  1  0  0  0  0
 35 25  1  0  0  0  0
 36 23  1  0  0  0  0
 39 22  1  0  0  0  0
 42 21  1  0  0  0  0
 44 21  1  0  0  0  0
M  END
