
 OpenBabel05032121113D

 28 29  0  0  0  0  0  0  0  0999 V2000
   -0.3615    0.0000    2.4422 C   0  0  0  0  0  0  0  0  0  0  0  0
    0.2209   -0.0000    3.7218 C   0  0  0  0  0  0  0  0  0  0  0  0
    1.6137   -0.0000    3.8348 C   0  0  0  0  0  0  0  0  0  0  0  0
    2.4201   -0.0001    2.6788 C   0  0  0  0  0  0  0  0  0  0  0  0
    0.4615   -0.0000    1.3164 C   0  0  0  0  0  0  0  0  0  0  0  0
    1.8126   -0.0001    1.4586 N   0  0  0  0  0  0  0  0  0  0  0  0
    3.9074   -0.0001    2.7273 C   0  0  0  0  0  0  0  0  0  0  0  0
    4.6368   -0.0001    3.9335 C   0  0  0  0  0  0  0  0  0  0  0  0
    6.0341   -0.0002    3.9113 C   0  0  0  0  0  0  0  0  0  0  0  0
    6.6984   -0.0002    2.6724 C   0  0  0  0  0  0  0  0  0  0  0  0
    4.5930   -0.0001    1.5494 N   0  0  0  0  0  0  0  0  0  0  0  0
    5.9505   -0.0002    1.4954 C   0  0  0  0  0  0  0  0  0  0  0  0
   -1.4349    0.0000    2.3088 H   0  0  0  0  0  0  0  0  0  0  0  0
    0.0255   -0.0000    0.3262 H   0  0  0  0  0  0  0  0  0  0  0  0
   -0.5127    0.0000    4.8645 O   0  0  0  0  0  0  0  0  0  0  0  0
    2.0333   -0.0001    4.8279 H   0  0  0  0  0  0  0  0  0  0  0  0
    4.1534   -0.0001    4.8972 H   0  0  0  0  0  0  0  0  0  0  0  0
    6.6922   -0.0002    5.0992 O   0  0  0  0  0  0  0  0  0  0  0  0
    6.4501   -0.0002    0.5357 H   0  0  0  0  0  0  0  0  0  0  0  0
    7.7782   -0.0002    2.6090 H   0  0  0  0  0  0  0  0  0  0  0  0
    8.0605   -0.0002    5.2650 C   0  0  0  0  0  0  0  0  0  0  0  0
   -1.8888    0.0001    4.9419 C   0  0  0  0  0  0  0  0  0  0  0  0
    8.2918   -0.0002    6.3499 H   0  0  0  0  0  0  0  0  0  0  0  0
    8.5017    0.9108    4.8080 H   0  0  0  0  0  0  0  0  0  0  0  0
    8.5017   -0.9113    4.8080 H   0  0  0  0  0  0  0  0  0  0  0  0
   -2.1892    0.0001    6.0098 H   0  0  0  0  0  0  0  0  0  0  0  0
   -2.2997   -0.9110    4.4576 H   0  0  0  0  0  0  0  0  0  0  0  0
   -2.2997    0.9112    4.4576 H   0  0  0  0  0  0  0  0  0  0  0  0
  1  2  2  0  0  0  0
  2  3  1  0  0  0  0
  2 15  1  0  0  0  0
  3 16  1  0  0  0  0
  4  7  1  0  0  0  0
  4  3  2  0  0  0  0
  5  6  2  0  0  0  0
  5  1  1  0  0  0  0
  6  4  1  0  0  0  0
  7  8  2  0  0  0  0
  8 17  1  0  0  0  0
  9  8  1  0  0  0  0
  9 18  1  0  0  0  0
 10  9  2  0  0  0  0
 11  7  1  0  0  0  0
 12 11  2  0  0  0  0
 12 10  1  0  0  0  0
 13  1  1  0  0  0  0
 14  5  1  0  0  0  0
 15 22  1  0  0  0  0
 18 21  1  0  0  0  0
 19 12  1  0  0  0  0
 20 10  1  0  0  0  0
 21 23  1  0  0  0  0
 22 26  1  0  0  0  0
 24 21  1  0  0  0  0
 25 21  1  0  0  0  0
 27 22  1  0  0  0  0
 28 22  1  0  0  0  0
M  END
