
 OpenBabel05032121113D

 22 24  0  0  0  0  0  0  0  0999 V2000
   -0.3379    0.0000    2.6977 C   0  0  0  0  0  0  0  0  0  0  0  0
    0.2772   -0.0000    3.9520 C   0  0  0  0  0  0  0  0  0  0  0  0
    1.6793   -0.0001    4.0480 C   0  0  0  0  0  0  0  0  0  0  0  0
    2.4365   -0.0001    2.8582 C   0  0  0  0  0  0  0  0  0  0  0  0
    0.4510   -0.0000    1.5479 C   0  0  0  0  0  0  0  0  0  0  0  0
    1.8038   -0.0001    1.6534 N   0  0  0  0  0  0  0  0  0  0  0  0
    3.9125   -0.0001    2.8955 C   0  0  0  0  0  0  0  0  0  0  0  0
    4.6091   -0.0001    4.1212 C   0  0  0  0  0  0  0  0  0  0  0  0
    6.0142   -0.0002    4.0960 C   0  0  0  0  0  0  0  0  0  0  0  0
    6.6916   -0.0002    2.8742 C   0  0  0  0  0  0  0  0  0  0  0  0
    4.6051   -0.0001    1.7234 N   0  0  0  0  0  0  0  0  0  0  0  0
    5.9614   -0.0002    1.6864 C   0  0  0  0  0  0  0  0  0  0  0  0
   -1.4168    0.0000    2.6147 H   0  0  0  0  0  0  0  0  0  0  0  0
   -0.0089    0.0000    0.5690 H   0  0  0  0  0  0  0  0  0  0  0  0
   -0.3412    0.0000    4.8409 H   0  0  0  0  0  0  0  0  0  0  0  0
    2.3718   -0.0001    5.3603 C   0  0  0  0  0  0  0  0  0  0  0  0
    3.8520   -0.0001    5.3977 C   0  0  0  0  0  0  0  0  0  0  0  0
    6.5870   -0.0002    5.0149 H   0  0  0  0  0  0  0  0  0  0  0  0
    6.4700   -0.0002    0.7318 H   0  0  0  0  0  0  0  0  0  0  0  0
    7.7732   -0.0002    2.8458 H   0  0  0  0  0  0  0  0  0  0  0  0
    4.4373   -0.0001    6.4709 O   0  0  0  0  0  0  0  0  0  0  0  0
    1.7334   -0.0001    6.4035 O   0  0  0  0  0  0  0  0  0  0  0  0
  1  2  2  0  0  0  0
  2  3  1  0  0  0  0
  2 15  1  0  0  0  0
  3 16  1  0  0  0  0
  4  7  1  0  0  0  0
  4  3  2  0  0  0  0
  5  6  2  0  0  0  0
  5  1  1  0  0  0  0
  6  4  1  0  0  0  0
  7  8  2  0  0  0  0
  8 17  1  0  0  0  0
  9  8  1  0  0  0  0
  9 18  1  0  0  0  0
 10  9  2  0  0  0  0
 11  7  1  0  0  0  0
 12 11  2  0  0  0  0
 12 10  1  0  0  0  0
 13  1  1  0  0  0  0
 14  5  1  0  0  0  0
 16 17  1  0  0  0  0
 16 22  2  0  0  0  0
 17 21  2  0  0  0  0
 19 12  1  0  0  0  0
 20 10  1  0  0  0  0
M  END
