
 OpenBabel05032121113D

 22 24  0  0  0  0  0  0  0  0999 V2000
   -0.3024    0.0000    2.7301 C   0  0  0  0  0  0  0  0  0  0  0  0
    0.3359   -0.0000    3.9736 C   0  0  0  0  0  0  0  0  0  0  0  0
    1.7380   -0.0001    4.0393 C   0  0  0  0  0  0  0  0  0  0  0  0
    2.4746   -0.0001    2.8327 C   0  0  0  0  0  0  0  0  0  0  0  0
    0.4641   -0.0000    1.5635 C   0  0  0  0  0  0  0  0  0  0  0  0
    1.8203   -0.0001    1.6395 N   0  0  0  0  0  0  0  0  0  0  0  0
    3.8758   -0.0001    2.8681 C   0  0  0  0  0  0  0  0  0  0  0  0
    4.5510   -0.0001    4.1099 C   0  0  0  0  0  0  0  0  0  0  0  0
    5.9546   -0.0002    4.1147 C   0  0  0  0  0  0  0  0  0  0  0  0
    6.6545   -0.0002    2.9048 C   0  0  0  0  0  0  0  0  0  0  0  0
    4.5893   -0.0001    1.7089 N   0  0  0  0  0  0  0  0  0  0  0  0
    5.9475   -0.0002    1.7013 C   0  0  0  0  0  0  0  0  0  0  0  0
   -1.3830    0.0000    2.6675 H   0  0  0  0  0  0  0  0  0  0  0  0
   -0.0170   -0.0000    0.5949 H   0  0  0  0  0  0  0  0  0  0  0  0
   -0.2639    0.0000    4.8759 H   0  0  0  0  0  0  0  0  0  0  0  0
    2.4138   -0.0001    5.2699 C   0  0  0  0  0  0  0  0  0  0  0  0
    3.8142   -0.0001    5.3052 C   0  0  0  0  0  0  0  0  0  0  0  0
    6.5083   -0.0002    5.0460 H   0  0  0  0  0  0  0  0  0  0  0  0
    6.4767   -0.0002    0.7580 H   0  0  0  0  0  0  0  0  0  0  0  0
    7.7369   -0.0002    2.8966 H   0  0  0  0  0  0  0  0  0  0  0  0
    1.8611   -0.0001    6.2024 H   0  0  0  0  0  0  0  0  0  0  0  0
    4.3195   -0.0001    6.2641 H   0  0  0  0  0  0  0  0  0  0  0  0
  1  2  2  0  0  0  0
  2  3  1  0  0  0  0
  2 15  1  0  0  0  0
  3 16  2  0  0  0  0
  4  7  2  0  0  0  0
  4  3  1  0  0  0  0
  5  6  2  0  0  0  0
  5  1  1  0  0  0  0
  6  4  1  0  0  0  0
  7  8  1  0  0  0  0
  8  9  1  0  0  0  0
  8 17  2  0  0  0  0
  9 18  1  0  0  0  0
 10  9  2  0  0  0  0
 11  7  1  0  0  0  0
 12 11  2  0  0  0  0
 12 10  1  0  0  0  0
 13  1  1  0  0  0  0
 14  5  1  0  0  0  0
 16 17  1  0  0  0  0
 16 21  1  0  0  0  0
 17 22  1  0  0  0  0
 19 12  1  0  0  0  0
 20 10  1  0  0  0  0
M  END
