
 OpenBabel05032121113D

 32 35  0  0  0  0  0  0  0  0999 V2000
   -0.2474    0.0000    2.1188 C   0  0  0  0  0  0  0  0  0  0  0  0
    0.3657   -0.0000    3.3659 C   0  0  0  0  0  0  0  0  0  0  0  0
    1.7556   -0.0001    3.4618 C   0  0  0  0  0  0  0  0  0  0  0  0
    2.5670   -0.0001    2.2978 C   0  0  0  0  0  0  0  0  0  0  0  0
    0.5648   -0.0000    0.9617 C   0  0  0  0  0  0  0  0  0  0  0  0
    1.9348   -0.0001    1.0817 N   0  0  0  0  0  0  0  0  0  0  0  0
    4.0836   -0.0001    2.3910 C   0  0  0  0  0  0  0  0  0  0  0  0
    4.7334   -0.0001    3.6464 C   0  0  0  0  0  0  0  0  0  0  0  0
    6.1198   -0.0002    3.7354 C   0  0  0  0  0  0  0  0  0  0  0  0
    6.8948   -0.0002    2.5828 C   0  0  0  0  0  0  0  0  0  0  0  0
    4.8728   -0.0001    1.2622 N   0  0  0  0  0  0  0  0  0  0  0  0
    6.2477   -0.0002    1.3262 C   0  0  0  0  0  0  0  0  0  0  0  0
   -1.6502    0.0000    2.0062 C   0  0  0  0  0  0  0  0  0  0  0  0
    2.1526   -0.0001    4.4597 H   0  0  0  0  0  0  0  0  0  0  0  0
    4.2071   -0.0001    4.5822 H   0  0  0  0  0  0  0  0  0  0  0  0
    8.2964   -0.0002    2.6708 C   0  0  0  0  0  0  0  0  0  0  0  0
    6.5882   -0.0002    4.7124 H   0  0  0  0  0  0  0  0  0  0  0  0
   -0.2298    0.0000    4.2726 H   0  0  0  0  0  0  0  0  0  0  0  0
    9.0695   -0.0002    1.5112 C   0  0  0  0  0  0  0  0  0  0  0  0
    8.4472   -0.0002    0.2600 C   0  0  0  0  0  0  0  0  0  0  0  0
    7.0433   -0.0002    0.1617 C   0  0  0  0  0  0  0  0  0  0  0  0
   -2.2489    0.0001    0.7458 C   0  0  0  0  0  0  0  0  0  0  0  0
   -1.4541    0.0000   -0.4038 C   0  0  0  0  0  0  0  0  0  0  0  0
   -0.0530    0.0000   -0.2993 C   0  0  0  0  0  0  0  0  0  0  0  0
    8.7934   -0.0002    3.6350 H   0  0  0  0  0  0  0  0  0  0  0  0
   10.1517   -0.0003    1.5866 H   0  0  0  0  0  0  0  0  0  0  0  0
    9.0631   -0.0002   -0.6316 H   0  0  0  0  0  0  0  0  0  0  0  0
    6.5893   -0.0002   -0.8199 H   0  0  0  0  0  0  0  0  0  0  0  0
   -2.2822    0.0001    2.8885 H   0  0  0  0  0  0  0  0  0  0  0  0
   -3.3305    0.0001    0.6604 H   0  0  0  0  0  0  0  0  0  0  0  0
    0.5424   -0.0000   -1.2016 H   0  0  0  0  0  0  0  0  0  0  0  0
   -1.9295    0.0001   -1.3767 H   0  0  0  0  0  0  0  0  0  0  0  0
  1  2  1  0  0  0  0
  2  3  2  0  0  0  0
  2 18  1  0  0  0  0
  3 14  1  0  0  0  0
  4  7  1  0  0  0  0
  4  3  1  0  0  0  0
  5  6  1  0  0  0  0
  5  1  2  0  0  0  0
  6  4  2  0  0  0  0
  7  8  2  0  0  0  0
  8  9  1  0  0  0  0
  8 15  1  0  0  0  0
  9 17  1  0  0  0  0
 10 16  1  0  0  0  0
 10  9  2  0  0  0  0
 11 12  2  0  0  0  0
 11  7  1  0  0  0  0
 12 10  1  0  0  0  0
 13  1  1  0  0  0  0
 13 29  1  0  0  0  0
 16 25  1  0  0  0  0
 19 26  1  0  0  0  0
 19 16  2  0  0  0  0
 20 19  1  0  0  0  0
 21 20  2  0  0  0  0
 21 12  1  0  0  0  0
 22 13  2  0  0  0  0
 23 24  2  0  0  0  0
 23 22  1  0  0  0  0
 24  5  1  0  0  0  0
 27 20  1  0  0  0  0
 28 21  1  0  0  0  0
 30 22  1  0  0  0  0
 31 24  1  0  0  0  0
 32 23  1  0  0  0  0
M  END
