
 OpenBabel06192101403D

 16 17  0  0  0  0  0  0  0  0999 V2000
    4.2105   -0.0759    3.1307 C   0  0  0  0  0  0  0  0  0  0  0  0
    4.9988   -0.0750    4.2924 C   0  0  0  0  0  0  0  0  0  0  0  0
    6.3907   -0.0791    4.1760 C   0  0  0  0  0  0  0  0  0  0  0  0
    6.9831   -0.0841    2.9123 C   0  0  0  0  0  0  0  0  0  0  0  0
    4.8161   -0.0807    1.9105 N   0  0  0  0  0  0  0  0  0  0  0  0
    6.1695   -0.0848    1.7777 C   0  0  0  0  0  0  0  0  0  0  0  0
    4.5457   -0.0712    5.2758 H   0  0  0  0  0  0  0  0  0  0  0  0
    6.6134   -0.0886    0.7911 H   0  0  0  0  0  0  0  0  0  0  0  0
    8.0609   -0.0873    2.8130 H   0  0  0  0  0  0  0  0  0  0  0  0
    2.7399   -0.0716    3.2119 C   0  0  0  0  0  0  0  0  0  0  0  0
    2.0271   -0.0665    4.3537 N   0  0  0  0  0  0  0  0  0  0  0  0
    0.7569   -0.0640    3.9737 N   0  0  0  0  0  0  0  0  0  0  0  0
    0.6851   -0.0675    2.6505 N   0  0  0  0  0  0  0  0  0  0  0  0
    1.9102   -0.0722    2.1564 N   0  0  0  0  0  0  0  0  0  0  0  0
    2.1522   -0.0756    1.1408 H   0  0  0  0  0  0  0  0  0  0  0  0
    7.0091   -0.0785    5.0643 H   0  0  0  0  0  0  0  0  0  0  0  0
  1 10  1  0  0  0  0
  1  2  2  0  0  0  0
  2  7  1  0  0  0  0
  3  2  1  0  0  0  0
  3 16  1  0  0  0  0
  4  3  2  0  0  0  0
  5  1  1  0  0  0  0
  6  5  2  0  0  0  0
  6  4  1  0  0  0  0
  8  6  1  0  0  0  0
  9  4  1  0  0  0  0
 10 11  2  0  0  0  0
 12 11  1  0  0  0  0
 13 12  2  0  0  0  0
 14 13  1  0  0  0  0
 14 10  1  0  0  0  0
 15 14  1  0  0  0  0
M  END
