
 OpenBabel05032121123D

 22 24  0  0  0  0  0  0  0  0999 V2000
    4.6707   -0.0506    3.3368 C   0  0  0  0  0  0  0  0  0  0  0  0
    5.3831   -0.0257    4.5456 C   0  0  0  0  0  0  0  0  0  0  0  0
    6.7841   -0.0179    4.5210 C   0  0  0  0  0  0  0  0  0  0  0  0
    7.4587   -0.0352    3.2791 C   0  0  0  0  0  0  0  0  0  0  0  0
    5.3487   -0.0668    2.1562 N   0  0  0  0  0  0  0  0  0  0  0  0
    6.7065   -0.0598    2.0983 C   0  0  0  0  0  0  0  0  0  0  0  0
    4.8552   -0.0127    5.4923 H   0  0  0  0  0  0  0  0  0  0  0  0
    7.1944   -0.0734    1.1317 H   0  0  0  0  0  0  0  0  0  0  0  0
    3.1976   -0.0595    3.3258 C   0  0  0  0  0  0  0  0  0  0  0  0
    2.4143   -0.0453    4.4204 N   0  0  0  0  0  0  0  0  0  0  0  0
    1.1706   -0.0605    3.9615 N   0  0  0  0  0  0  0  0  0  0  0  0
    1.1822   -0.0832    2.6366 N   0  0  0  0  0  0  0  0  0  0  0  0
    2.4359   -0.0829    2.2204 N   0  0  0  0  0  0  0  0  0  0  0  0
    2.7413   -0.0982    1.2222 H   0  0  0  0  0  0  0  0  0  0  0  0
    7.5255    0.0068    5.7127 C   0  0  0  0  0  0  0  0  0  0  0  0
    8.9232    0.0142    5.6687 C   0  0  0  0  0  0  0  0  0  0  0  0
    9.5888   -0.0029    4.4395 C   0  0  0  0  0  0  0  0  0  0  0  0
    8.8613   -0.0275    3.2458 C   0  0  0  0  0  0  0  0  0  0  0  0
   10.6708    0.0030    4.4120 H   0  0  0  0  0  0  0  0  0  0  0  0
    9.3922   -0.0405    2.3014 H   0  0  0  0  0  0  0  0  0  0  0  0
    7.0264    0.0203    6.6743 H   0  0  0  0  0  0  0  0  0  0  0  0
    9.4917    0.0333    6.5895 H   0  0  0  0  0  0  0  0  0  0  0  0
  1  2  2  0  0  0  0
  2  7  1  0  0  0  0
  3  2  1  0  0  0  0
  3 15  2  0  0  0  0
  4  3  1  0  0  0  0
  5  1  1  0  0  0  0
  6  5  2  0  0  0  0
  6  4  1  0  0  0  0
  8  6  1  0  0  0  0
  9  1  1  0  0  0  0
  9 10  2  0  0  0  0
 11 10  1  0  0  0  0
 12 11  2  0  0  0  0
 13 12  1  0  0  0  0
 13  9  1  0  0  0  0
 14 13  1  0  0  0  0
 15 21  1  0  0  0  0
 16 15  1  0  0  0  0
 16 22  1  0  0  0  0
 17 16  2  0  0  0  0
 18  4  2  0  0  0  0
 18 17  1  0  0  0  0
 19 17  1  0  0  0  0
 20 18  1  0  0  0  0
M  END
