
 OpenBabel05032121123D

 18 19  0  0  0  0  0  0  0  0999 V2000
    3.7992   -0.0518    2.9420 C   0  0  0  0  0  0  0  0  0  0  0  0
    4.5565    0.0328    4.1236 C   0  0  0  0  0  0  0  0  0  0  0  0
    5.9509    0.0501    4.0458 C   0  0  0  0  0  0  0  0  0  0  0  0
    6.5800   -0.0165    2.8023 C   0  0  0  0  0  0  0  0  0  0  0  0
    4.4439   -0.1154    1.7431 N   0  0  0  0  0  0  0  0  0  0  0  0
    5.8002   -0.0998    1.6482 C   0  0  0  0  0  0  0  0  0  0  0  0
    4.0848    0.0852    5.0952 H   0  0  0  0  0  0  0  0  0  0  0  0
    6.5434    0.1151    4.9493 H   0  0  0  0  0  0  0  0  0  0  0  0
    6.2722   -0.1522    0.6762 H   0  0  0  0  0  0  0  0  0  0  0  0
    7.6601   -0.0036    2.7336 H   0  0  0  0  0  0  0  0  0  0  0  0
    2.3211   -0.0738    2.9651 C   0  0  0  0  0  0  0  0  0  0  0  0
    1.4941   -0.0188    4.0712 C   0  0  0  0  0  0  0  0  0  0  0  0
    0.2139   -0.0705    3.5600 C   0  0  0  0  0  0  0  0  0  0  0  0
    0.2737   -0.1522    2.2166 N   0  0  0  0  0  0  0  0  0  0  0  0
    1.5494   -0.1537    1.8639 N   0  0  0  0  0  0  0  0  0  0  0  0
    1.8794   -0.2094    0.8748 H   0  0  0  0  0  0  0  0  0  0  0  0
    1.7696    0.0498    5.1145 H   0  0  0  0  0  0  0  0  0  0  0  0
   -0.7046   -0.0498    4.1308 H   0  0  0  0  0  0  0  0  0  0  0  0
  1 11  1  0  0  0  0
  1  2  2  0  0  0  0
  2  7  1  0  0  0  0
  3  2  1  0  0  0  0
  3  8  1  0  0  0  0
  4  3  2  0  0  0  0
  5  1  1  0  0  0  0
  6  5  2  0  0  0  0
  6  4  1  0  0  0  0
  9  6  1  0  0  0  0
 10  4  1  0  0  0  0
 11 12  2  0  0  0  0
 12 17  1  0  0  0  0
 13 12  1  0  0  0  0
 13 18  1  0  0  0  0
 14 13  2  0  0  0  0
 15 14  1  0  0  0  0
 15 11  1  0  0  0  0
 16 15  1  0  0  0  0
M  END
