O2 Oxygen diatomic 7782447
##CCCBDB 5172214:20
Geometry Optimized at CCSD(T)=FULL/CEP-121G
  2  1  0  0  0  0  0  0  0  0999 V2000
    0.0000    0.0000    0.6483 O   0  0  0  0  0  0  0  0  0  0  0  0
    0.0000    0.0000   -0.6483 O   0  0  0  0  0  0  0  0  0  0  0  0
  1  2  2  0  0  0
M  RAD  1  1  3
M  END
