@<TRIPOS>MOLECULE
correct_complexes/RADTEZ/ax_lig_0
23	24	1
SMALL
PartialCharges
****
Generated from molSimplify

@<TRIPOS>ATOM
1 C1	3.1056  9.1661  5.7303 C.ar	1 RES1 0.0
2 C2	2.7649  7.8234  5.4813 C.ar	1 RES1 0.0
3 C3	3.0269  7.1638  4.2693 C.ar	1 RES1 0.0
4 H1	2.7859  6.254  4.1373 H	1 RES1 0.0
5 C4	3.6456  7.8954  3.2848 C.ar	1 RES1 0.0
6 C5	4.0201  9.1979  3.4496 C.ar	1 RES1 0.0
7 H2	4.4619  9.6724  2.7541 H	1 RES1 0.0
8 C6	3.7399  9.7979  4.6498 C.ar	1 RES1 0.0
9 F1	3.921  7.2733  2.0996 F	1 RES1 0.0
10 F2	4.121  11.1074  4.7969 F	1 RES1 0.0
11 C7	2.142  7.1195  6.6187 C.ar	1 RES1 0.0
12 C8	1.6275  5.8405  6.5991 C.ar	1 RES1 0.0
13 H3	1.6965  5.323  5.8058 H	1 RES1 0.0
14 C9	1.0116  5.2932  7.715 C.ar	1 RES1 0.0
15 H4	0.6644  4.4094  7.7071 H	1 RES1 0.0
16 C10	0.9237  6.1024  8.8504 C.ar	1 RES1 0.0
17 C11	1.4636  7.3703  8.8446 C.ar	1 RES1 0.0
18 H5	1.416  7.8998  9.631 H	1 RES1 0.0
19 N1	2.0544  7.8733  7.7511 N.ar	1 RES1 0.0
20 C12	0.2507  5.5481  10.0703 C.3	1 RES1 0.0
21 F3	0.0229  6.4724  10.9994 F	1 RES1 0.0
22 F4	0.9909  4.574  10.6447 F	1 RES1 0.0
23 F5	-0.9326  4.9842  9.7812 F	1 RES1 0.0
@<TRIPOS>BOND
1 1 2 ar
1 1 8 ar
1 2 3 ar
1 2 11 1
1 3 4 1
1 3 5 ar
1 5 6 ar
1 5 9 1
1 6 7 1
1 6 8 ar
1 8 10 1
1 11 12 ar
1 11 19 ar
1 12 13 1
1 12 14 ar
1 14 15 1
1 14 16 ar
1 16 17 ar
1 16 20 1
1 17 18 1
1 17 19 ar
1 20 21 1
1 20 22 1
1 20 23 1
@<TRIPOS>SUBSTRUCTURE
1 RES1 23

